

--------------------------------------------------------------------------------

Command: run Delft3D-FLOW
   Starting Delft3D-FLOW computation ...
--------------------------------------------------------------------------------
       Deltares, Delft3D-FLOW Version 4.00.04.757, Aug 23 2011, 18:06:51
       flow2d3d.dll entry RUNME
--------------------------------------------------------------------------------

Part I    - Initialisation Time Dep. Data module...    
            runid : test1
Part II   - Creating intermediate files...             
Part III  - Initialisation of the Execution module...  
Part IV   - Reading complete MD-file...                     
Part V    - Initialisation & checking input...              
Part VI   - Initialisation & checking second part...        
Part VII  - Initialisation output...                        
Part VIII - Start Simulation...                             
 
  Time to finish   0s,    0.0% completed, time steps left  1440
  Time to finish  53s,    0.1% completed, time steps left  1439
  Time to finish  27s,    0.1% completed, time steps left  1438
  Time to finish  21s,    0.2% completed, time steps left  1437
  Time to finish  16s,    0.3% completed, time steps left  1436
  Time to finish  15s,    0.3% completed, time steps left  1435
  Time to finish  12s,    0.4% completed, time steps left  1434
  Time to finish  12s,    0.5% completed, time steps left  1433
  Time to finish  10s,    0.6% completed, time steps left  1432
  Time to finish  10s,    0.6% completed, time steps left  1431
  Time to finish   9s,    0.7% completed, time steps left  1430
  Time to finish   9s,    0.8% completed, time steps left  1429
  Time to finish   9s,    0.8% completed, time steps left  1428
  Time to finish   9s,    0.9% completed, time steps left  1427
  Time to finish   9s,    1.0% completed, time steps left  1426
  Time to finish   9s,    1.0% completed, time steps left  1425
  Time to finish   8s,    1.1% completed, time steps left  1424
  Time to finish   8s,    1.2% completed, time steps left  1423
  Time to finish   8s,    1.2% completed, time steps left  1422
  Time to finish   8s,    1.3% completed, time steps left  1421
  Time to finish   8s,    1.4% completed, time steps left  1420
  Time to finish   8s,    1.5% completed, time steps left  1419
  Time to finish   7s,    1.5% completed, time steps left  1418
  Time to finish   7s,    1.6% completed, time steps left  1417
  Time to finish   7s,    1.7% completed, time steps left  1416
  Time to finish   8s,    1.7% completed, time steps left  1415
  Time to finish   7s,    1.8% completed, time steps left  1414
  Time to finish   7s,    1.9% completed, time steps left  1413
  Time to finish   7s,    1.9% completed, time steps left  1412
  Time to finish   7s,    2.0% completed, time steps left  1411
  Time to finish   7s,    2.1% completed, time steps left  1410
  Time to finish   7s,    2.2% completed, time steps left  1409
  Time to finish   7s,    2.2% completed, time steps left  1408
  Time to finish   7s,    2.3% completed, time steps left  1407
  Time to finish   7s,    2.4% completed, time steps left  1406
  Time to finish   7s,    2.4% completed, time steps left  1405
  Time to finish   7s,    2.5% completed, time steps left  1404
  Time to finish   7s,    2.6% completed, time steps left  1403
  Time to finish   7s,    2.6% completed, time steps left  1402
  Time to finish   7s,    2.7% completed, time steps left  1401
  Time to finish   7s,    2.8% completed, time steps left  1400
  Time to finish   7s,    2.8% completed, time steps left  1399
  Time to finish   7s,    2.9% completed, time steps left  1398
  Time to finish   7s,    3.0% completed, time steps left  1397
  Time to finish   6s,    3.1% completed, time steps left  1396
  Time to finish   7s,    3.1% completed, time steps left  1395
  Time to finish   6s,    3.2% completed, time steps left  1394
  Time to finish   6s,    3.3% completed, time steps left  1393
  Time to finish   6s,    3.3% completed, time steps left  1392
  Time to finish   7s,    3.4% completed, time steps left  1391
  Time to finish   6s,    3.5% completed, time steps left  1390
  Time to finish   6s,    3.5% completed, time steps left  1389
  Time to finish   6s,    3.6% completed, time steps left  1388
  Time to finish   6s,    3.7% completed, time steps left  1387
  Time to finish   6s,    3.8% completed, time steps left  1386
  Time to finish   6s,    3.8% completed, time steps left  1385
  Time to finish   6s,    3.9% completed, time steps left  1384
  Time to finish   6s,    4.0% completed, time steps left  1383
  Time to finish   6s,    4.0% completed, time steps left  1382
  Time to finish   6s,    4.1% completed, time steps left  1381
  Time to finish   6s,    4.2% completed, time steps left  1380
  Time to finish   6s,    4.2% completed, time steps left  1379
  Time to finish   6s,    4.3% completed, time steps left  1378
  Time to finish   6s,    4.4% completed, time steps left  1377
  Time to finish   6s,    4.4% completed, time steps left  1376
  Time to finish   6s,    4.5% completed, time steps left  1375
  Time to finish   6s,    4.6% completed, time steps left  1374
  Time to finish   6s,    4.7% completed, time steps left  1373
  Time to finish   6s,    4.7% completed, time steps left  1372
  Time to finish   6s,    4.8% completed, time steps left  1371
  Time to finish   6s,    4.9% completed, time steps left  1370
  Time to finish   6s,    4.9% completed, time steps left  1369
  Time to finish   6s,    5.0% completed, time steps left  1368
  Time to finish   6s,    5.1% completed, time steps left  1367
  Time to finish   6s,    5.1% completed, time steps left  1366
  Time to finish   6s,    5.2% completed, time steps left  1365
  Time to finish   6s,    5.3% completed, time steps left  1364
  Time to finish   6s,    5.3% completed, time steps left  1363
  Time to finish   6s,    5.4% completed, time steps left  1362
  Time to finish   6s,    5.5% completed, time steps left  1361
  Time to finish   6s,    5.6% completed, time steps left  1360
  Time to finish   6s,    5.6% completed, time steps left  1359
  Time to finish   6s,    5.7% completed, time steps left  1358
  Time to finish   6s,    5.8% completed, time steps left  1357
  Time to finish   6s,    5.8% completed, time steps left  1356
  Time to finish   6s,    5.9% completed, time steps left  1355
  Time to finish   6s,    6.0% completed, time steps left  1354
  Time to finish   6s,    6.0% completed, time steps left  1353
  Time to finish   6s,    6.1% completed, time steps left  1352
  Time to finish   6s,    6.2% completed, time steps left  1351
  Time to finish   6s,    6.2% completed, time steps left  1350
  Time to finish   6s,    6.3% completed, time steps left  1349
  Time to finish   6s,    6.4% completed, time steps left  1348
  Time to finish   6s,    6.5% completed, time steps left  1347
  Time to finish   6s,    6.5% completed, time steps left  1346
  Time to finish   6s,    6.6% completed, time steps left  1345
  Time to finish   6s,    6.7% completed, time steps left  1344
  Time to finish   6s,    6.7% completed, time steps left  1343
  Time to finish   6s,    6.8% completed, time steps left  1342
  Time to finish   6s,    6.9% completed, time steps left  1341
  Time to finish   6s,    6.9% completed, time steps left  1340
  Time to finish   6s,    7.0% completed, time steps left  1339
  Time to finish   6s,    7.1% completed, time steps left  1338
  Time to finish   6s,    7.2% completed, time steps left  1337
  Time to finish   6s,    7.2% completed, time steps left  1336
  Time to finish   6s,    7.3% completed, time steps left  1335
  Time to finish   6s,    7.4% completed, time steps left  1334
  Time to finish   6s,    7.4% completed, time steps left  1333
  Time to finish   6s,    7.5% completed, time steps left  1332
  Time to finish   6s,    7.6% completed, time steps left  1331
  Time to finish   6s,    7.6% completed, time steps left  1330
  Time to finish   6s,    7.7% completed, time steps left  1329
  Time to finish   6s,    7.8% completed, time steps left  1328
  Time to finish   6s,    7.8% completed, time steps left  1327
  Time to finish   6s,    7.9% completed, time steps left  1326
  Time to finish   6s,    8.0% completed, time steps left  1325
  Time to finish   6s,    8.1% completed, time steps left  1324
  Time to finish   6s,    8.1% completed, time steps left  1323
  Time to finish   6s,    8.2% completed, time steps left  1322
  Time to finish   6s,    8.3% completed, time steps left  1321
  Time to finish   5s,    8.3% completed, time steps left  1320
  Time to finish   6s,    8.4% completed, time steps left  1319
  Time to finish   6s,    8.5% completed, time steps left  1318
  Time to finish   6s,    8.5% completed, time steps left  1317
  Time to finish   6s,    8.6% completed, time steps left  1316
  Time to finish   6s,    8.7% completed, time steps left  1315
  Time to finish   5s,    8.8% completed, time steps left  1314
  Time to finish   6s,    8.8% completed, time steps left  1313
  Time to finish   5s,    8.9% completed, time steps left  1312
  Time to finish   5s,    9.0% completed, time steps left  1311
  Time to finish   5s,    9.0% completed, time steps left  1310
  Time to finish   5s,    9.1% completed, time steps left  1309
  Time to finish   5s,    9.2% completed, time steps left  1308
  Time to finish   5s,    9.2% completed, time steps left  1307
  Time to finish   5s,    9.3% completed, time steps left  1306
  Time to finish   5s,    9.4% completed, time steps left  1305
  Time to finish   5s,    9.4% completed, time steps left  1304
  Time to finish   5s,    9.5% completed, time steps left  1303
  Time to finish   5s,    9.6% completed, time steps left  1302
  Time to finish   5s,    9.7% completed, time steps left  1301
  Time to finish   5s,    9.7% completed, time steps left  1300
  Time to finish   5s,    9.8% completed, time steps left  1299
  Time to finish   5s,    9.9% completed, time steps left  1298
  Time to finish   5s,    9.9% completed, time steps left  1297
  Time to finish   5s,   10.0% completed, time steps left  1296
  Time to finish   5s,   10.1% completed, time steps left  1295
  Time to finish   5s,   10.1% completed, time steps left  1294
  Time to finish   5s,   10.2% completed, time steps left  1293
  Time to finish   5s,   10.3% completed, time steps left  1292
  Time to finish   5s,   10.3% completed, time steps left  1291
  Time to finish   5s,   10.4% completed, time steps left  1290
  Time to finish   5s,   10.5% completed, time steps left  1289
  Time to finish   5s,   10.6% completed, time steps left  1288
  Time to finish   5s,   10.6% completed, time steps left  1287
  Time to finish   5s,   10.7% completed, time steps left  1286
  Time to finish   5s,   10.8% completed, time steps left  1285
  Time to finish   5s,   10.8% completed, time steps left  1284
  Time to finish   5s,   10.9% completed, time steps left  1283
  Time to finish   5s,   11.0% completed, time steps left  1282
  Time to finish   5s,   11.0% completed, time steps left  1281
  Time to finish   5s,   11.1% completed, time steps left  1280
  Time to finish   5s,   11.2% completed, time steps left  1279
  Time to finish   5s,   11.2% completed, time steps left  1278
  Time to finish   5s,   11.3% completed, time steps left  1277
  Time to finish   5s,   11.4% completed, time steps left  1276
  Time to finish   5s,   11.5% completed, time steps left  1275
  Time to finish   5s,   11.5% completed, time steps left  1274
  Time to finish   5s,   11.6% completed, time steps left  1273
  Time to finish   5s,   11.7% completed, time steps left  1272
  Time to finish   5s,   11.7% completed, time steps left  1271
  Time to finish   5s,   11.8% completed, time steps left  1270
  Time to finish   5s,   11.9% completed, time steps left  1269
  Time to finish   5s,   11.9% completed, time steps left  1268
  Time to finish   5s,   12.0% completed, time steps left  1267
  Time to finish   5s,   12.1% completed, time steps left  1266
  Time to finish   5s,   12.2% completed, time steps left  1265
  Time to finish   5s,   12.2% completed, time steps left  1264
  Time to finish   5s,   12.3% completed, time steps left  1263
  Time to finish   5s,   12.4% completed, time steps left  1262
  Time to finish   5s,   12.4% completed, time steps left  1261
  Time to finish   5s,   12.5% completed, time steps left  1260
  Time to finish   5s,   12.6% completed, time steps left  1259
  Time to finish   5s,   12.6% completed, time steps left  1258
  Time to finish   5s,   12.7% completed, time steps left  1257
  Time to finish   5s,   12.8% completed, time steps left  1256
  Time to finish   5s,   12.8% completed, time steps left  1255
  Time to finish   5s,   12.9% completed, time steps left  1254
  Time to finish   5s,   13.0% completed, time steps left  1253
  Time to finish   5s,   13.1% completed, time steps left  1252
  Time to finish   5s,   13.1% completed, time steps left  1251
  Time to finish   5s,   13.2% completed, time steps left  1250
  Time to finish   5s,   13.3% completed, time steps left  1249
  Time to finish   5s,   13.3% completed, time steps left  1248
  Time to finish   5s,   13.4% completed, time steps left  1247
  Time to finish   5s,   13.5% completed, time steps left  1246
  Time to finish   5s,   13.5% completed, time steps left  1245
  Time to finish   5s,   13.6% completed, time steps left  1244
  Time to finish   5s,   13.7% completed, time steps left  1243
  Time to finish   5s,   13.8% completed, time steps left  1242
  Time to finish   5s,   13.8% completed, time steps left  1241
  Time to finish   5s,   13.9% completed, time steps left  1240
  Time to finish   5s,   14.0% completed, time steps left  1239
  Time to finish   5s,   14.0% completed, time steps left  1238
  Time to finish   5s,   14.1% completed, time steps left  1237
  Time to finish   5s,   14.2% completed, time steps left  1236
  Time to finish   5s,   14.2% completed, time steps left  1235
  Time to finish   5s,   14.3% completed, time steps left  1234
  Time to finish   5s,   14.4% completed, time steps left  1233
  Time to finish   5s,   14.4% completed, time steps left  1232
  Time to finish   5s,   14.5% completed, time steps left  1231
  Time to finish   5s,   14.6% completed, time steps left  1230
  Time to finish   5s,   14.7% completed, time steps left  1229
  Time to finish   5s,   14.7% completed, time steps left  1228
  Time to finish   5s,   14.8% completed, time steps left  1227
  Time to finish   5s,   14.9% completed, time steps left  1226
  Time to finish   5s,   14.9% completed, time steps left  1225
  Time to finish   5s,   15.0% completed, time steps left  1224
  Time to finish   5s,   15.1% completed, time steps left  1223
  Time to finish   5s,   15.1% completed, time steps left  1222
  Time to finish   5s,   15.2% completed, time steps left  1221
  Time to finish   5s,   15.3% completed, time steps left  1220
  Time to finish   5s,   15.3% completed, time steps left  1219
  Time to finish   5s,   15.4% completed, time steps left  1218
  Time to finish   5s,   15.5% completed, time steps left  1217
  Time to finish   5s,   15.6% completed, time steps left  1216
  Time to finish   5s,   15.6% completed, time steps left  1215
  Time to finish   5s,   15.7% completed, time steps left  1214
  Time to finish   5s,   15.8% completed, time steps left  1213
  Time to finish   5s,   15.8% completed, time steps left  1212
  Time to finish   5s,   15.9% completed, time steps left  1211
  Time to finish   5s,   16.0% completed, time steps left  1210
  Time to finish   5s,   16.0% completed, time steps left  1209
  Time to finish   5s,   16.1% completed, time steps left  1208
  Time to finish   5s,   16.2% completed, time steps left  1207
  Time to finish   5s,   16.2% completed, time steps left  1206
  Time to finish   5s,   16.3% completed, time steps left  1205
  Time to finish   5s,   16.4% completed, time steps left  1204
  Time to finish   5s,   16.5% completed, time steps left  1203
  Time to finish   5s,   16.5% completed, time steps left  1202
  Time to finish   5s,   16.6% completed, time steps left  1201
  Time to finish   5s,   16.7% completed, time steps left  1200
  Time to finish   5s,   16.7% completed, time steps left  1199
  Time to finish   5s,   16.8% completed, time steps left  1198
  Time to finish   5s,   16.9% completed, time steps left  1197
  Time to finish   5s,   16.9% completed, time steps left  1196
  Time to finish   5s,   17.0% completed, time steps left  1195
  Time to finish   5s,   17.1% completed, time steps left  1194
  Time to finish   5s,   17.2% completed, time steps left  1193
  Time to finish   5s,   17.2% completed, time steps left  1192
  Time to finish   5s,   17.3% completed, time steps left  1191
  Time to finish   5s,   17.4% completed, time steps left  1190
  Time to finish   5s,   17.4% completed, time steps left  1189
  Time to finish   5s,   17.5% completed, time steps left  1188
  Time to finish   5s,   17.6% completed, time steps left  1187
  Time to finish   5s,   17.6% completed, time steps left  1186
  Time to finish   5s,   17.7% completed, time steps left  1185
  Time to finish   5s,   17.8% completed, time steps left  1184
  Time to finish   5s,   17.8% completed, time steps left  1183
  Time to finish   5s,   17.9% completed, time steps left  1182
  Time to finish   5s,   18.0% completed, time steps left  1181
  Time to finish   5s,   18.1% completed, time steps left  1180
  Time to finish   5s,   18.1% completed, time steps left  1179
  Time to finish   5s,   18.2% completed, time steps left  1178
  Time to finish   5s,   18.3% completed, time steps left  1177
  Time to finish   5s,   18.3% completed, time steps left  1176
  Time to finish   5s,   18.4% completed, time steps left  1175
  Time to finish   5s,   18.5% completed, time steps left  1174
  Time to finish   5s,   18.5% completed, time steps left  1173
  Time to finish   5s,   18.6% completed, time steps left  1172
  Time to finish   5s,   18.7% completed, time steps left  1171
  Time to finish   5s,   18.8% completed, time steps left  1170
  Time to finish   5s,   18.8% completed, time steps left  1169
  Time to finish   5s,   18.9% completed, time steps left  1168
  Time to finish   5s,   19.0% completed, time steps left  1167
  Time to finish   5s,   19.0% completed, time steps left  1166
  Time to finish   5s,   19.1% completed, time steps left  1165
  Time to finish   5s,   19.2% completed, time steps left  1164
  Time to finish   5s,   19.2% completed, time steps left  1163
  Time to finish   5s,   19.3% completed, time steps left  1162
  Time to finish   5s,   19.4% completed, time steps left  1161
  Time to finish   5s,   19.4% completed, time steps left  1160
  Time to finish   5s,   19.5% completed, time steps left  1159
  Time to finish   5s,   19.6% completed, time steps left  1158
  Time to finish   5s,   19.7% completed, time steps left  1157
  Time to finish   5s,   19.7% completed, time steps left  1156
  Time to finish   5s,   19.8% completed, time steps left  1155
  Time to finish   5s,   19.9% completed, time steps left  1154
  Time to finish   5s,   19.9% completed, time steps left  1153
  Time to finish   5s,   20.0% completed, time steps left  1152
  Time to finish   5s,   20.1% completed, time steps left  1151
  Time to finish   5s,   20.1% completed, time steps left  1150
  Time to finish   5s,   20.2% completed, time steps left  1149
  Time to finish   5s,   20.3% completed, time steps left  1148
  Time to finish   5s,   20.3% completed, time steps left  1147
  Time to finish   5s,   20.4% completed, time steps left  1146
  Time to finish   5s,   20.5% completed, time steps left  1145
  Time to finish   5s,   20.6% completed, time steps left  1144
  Time to finish   5s,   20.6% completed, time steps left  1143
  Time to finish   5s,   20.7% completed, time steps left  1142
  Time to finish   5s,   20.8% completed, time steps left  1141
  Time to finish   5s,   20.8% completed, time steps left  1140
  Time to finish   5s,   20.9% completed, time steps left  1139
  Time to finish   5s,   21.0% completed, time steps left  1138
  Time to finish   5s,   21.0% completed, time steps left  1137
  Time to finish   5s,   21.1% completed, time steps left  1136
  Time to finish   5s,   21.2% completed, time steps left  1135
  Time to finish   5s,   21.2% completed, time steps left  1134
  Time to finish   5s,   21.3% completed, time steps left  1133
  Time to finish   5s,   21.4% completed, time steps left  1132
  Time to finish   5s,   21.5% completed, time steps left  1131
  Time to finish   5s,   21.5% completed, time steps left  1130
  Time to finish   5s,   21.6% completed, time steps left  1129
  Time to finish   5s,   21.7% completed, time steps left  1128
  Time to finish   5s,   21.7% completed, time steps left  1127
  Time to finish   5s,   21.8% completed, time steps left  1126
  Time to finish   5s,   21.9% completed, time steps left  1125
  Time to finish   5s,   21.9% completed, time steps left  1124
  Time to finish   5s,   22.0% completed, time steps left  1123
  Time to finish   5s,   22.1% completed, time steps left  1122
  Time to finish   5s,   22.2% completed, time steps left  1121
  Time to finish   5s,   22.2% completed, time steps left  1120
  Time to finish   5s,   22.3% completed, time steps left  1119
  Time to finish   5s,   22.4% completed, time steps left  1118
  Time to finish   5s,   22.4% completed, time steps left  1117
  Time to finish   5s,   22.5% completed, time steps left  1116
  Time to finish   5s,   22.6% completed, time steps left  1115
  Time to finish   5s,   22.6% completed, time steps left  1114
  Time to finish   5s,   22.7% completed, time steps left  1113
  Time to finish   5s,   22.8% completed, time steps left  1112
  Time to finish   5s,   22.8% completed, time steps left  1111
  Time to finish   5s,   22.9% completed, time steps left  1110
  Time to finish   5s,   23.0% completed, time steps left  1109
  Time to finish   4s,   23.1% completed, time steps left  1108
  Time to finish   5s,   23.1% completed, time steps left  1107
  Time to finish   4s,   23.2% completed, time steps left  1106
  Time to finish   4s,   23.3% completed, time steps left  1105
  Time to finish   4s,   23.3% completed, time steps left  1104
  Time to finish   4s,   23.4% completed, time steps left  1103
  Time to finish   4s,   23.5% completed, time steps left  1102
  Time to finish   4s,   23.5% completed, time steps left  1101
  Time to finish   4s,   23.6% completed, time steps left  1100
  Time to finish   4s,   23.7% completed, time steps left  1099
  Time to finish   4s,   23.8% completed, time steps left  1098
  Time to finish   4s,   23.8% completed, time steps left  1097
  Time to finish   4s,   23.9% completed, time steps left  1096
  Time to finish   4s,   24.0% completed, time steps left  1095
  Time to finish   4s,   24.0% completed, time steps left  1094
  Time to finish   4s,   24.1% completed, time steps left  1093
  Time to finish   4s,   24.2% completed, time steps left  1092
  Time to finish   4s,   24.2% completed, time steps left  1091
  Time to finish   4s,   24.3% completed, time steps left  1090
  Time to finish   4s,   24.4% completed, time steps left  1089
  Time to finish   4s,   24.4% completed, time steps left  1088
  Time to finish   4s,   24.5% completed, time steps left  1087
  Time to finish   4s,   24.6% completed, time steps left  1086
  Time to finish   4s,   24.7% completed, time steps left  1085
  Time to finish   4s,   24.7% completed, time steps left  1084
  Time to finish   4s,   24.8% completed, time steps left  1083
  Time to finish   4s,   24.9% completed, time steps left  1082
  Time to finish   4s,   24.9% completed, time steps left  1081
  Time to finish   4s,   25.0% completed, time steps left  1080
  Time to finish   4s,   25.1% completed, time steps left  1079
  Time to finish   4s,   25.1% completed, time steps left  1078
  Time to finish   4s,   25.2% completed, time steps left  1077
  Time to finish   4s,   25.3% completed, time steps left  1076
  Time to finish   4s,   25.3% completed, time steps left  1075
  Time to finish   4s,   25.4% completed, time steps left  1074
  Time to finish   4s,   25.5% completed, time steps left  1073
  Time to finish   4s,   25.6% completed, time steps left  1072
  Time to finish   4s,   25.6% completed, time steps left  1071
  Time to finish   4s,   25.7% completed, time steps left  1070
  Time to finish   4s,   25.8% completed, time steps left  1069
  Time to finish   4s,   25.8% completed, time steps left  1068
  Time to finish   4s,   25.9% completed, time steps left  1067
  Time to finish   4s,   26.0% completed, time steps left  1066
  Time to finish   4s,   26.0% completed, time steps left  1065
  Time to finish   4s,   26.1% completed, time steps left  1064
  Time to finish   4s,   26.2% completed, time steps left  1063
  Time to finish   4s,   26.2% completed, time steps left  1062
  Time to finish   4s,   26.3% completed, time steps left  1061
  Time to finish   4s,   26.4% completed, time steps left  1060
  Time to finish   4s,   26.5% completed, time steps left  1059
  Time to finish   4s,   26.5% completed, time steps left  1058
  Time to finish   4s,   26.6% completed, time steps left  1057
  Time to finish   4s,   26.7% completed, time steps left  1056
  Time to finish   4s,   26.7% completed, time steps left  1055
  Time to finish   4s,   26.8% completed, time steps left  1054
  Time to finish   4s,   26.9% completed, time steps left  1053
  Time to finish   4s,   26.9% completed, time steps left  1052
  Time to finish   4s,   27.0% completed, time steps left  1051
  Time to finish   4s,   27.1% completed, time steps left  1050
  Time to finish   4s,   27.2% completed, time steps left  1049
  Time to finish   4s,   27.2% completed, time steps left  1048
  Time to finish   4s,   27.3% completed, time steps left  1047
  Time to finish   4s,   27.4% completed, time steps left  1046
  Time to finish   4s,   27.4% completed, time steps left  1045
  Time to finish   4s,   27.5% completed, time steps left  1044
  Time to finish   5s,   27.6% completed, time steps left  1043
  Time to finish   5s,   27.6% completed, time steps left  1042
  Time to finish   5s,   27.7% completed, time steps left  1041
  Time to finish   5s,   27.8% completed, time steps left  1040
  Time to finish   5s,   27.8% completed, time steps left  1039
  Time to finish   5s,   27.9% completed, time steps left  1038
  Time to finish   5s,   28.0% completed, time steps left  1037
  Time to finish   5s,   28.1% completed, time steps left  1036
  Time to finish   5s,   28.1% completed, time steps left  1035
  Time to finish   5s,   28.2% completed, time steps left  1034
  Time to finish   5s,   28.3% completed, time steps left  1033
  Time to finish   5s,   28.3% completed, time steps left  1032
  Time to finish   5s,   28.4% completed, time steps left  1031
  Time to finish   5s,   28.5% completed, time steps left  1030
  Time to finish   5s,   28.5% completed, time steps left  1029
  Time to finish   5s,   28.6% completed, time steps left  1028
  Time to finish   5s,   28.7% completed, time steps left  1027
  Time to finish   5s,   28.7% completed, time steps left  1026
  Time to finish   5s,   28.8% completed, time steps left  1025
  Time to finish   5s,   28.9% completed, time steps left  1024
  Time to finish   5s,   29.0% completed, time steps left  1023
  Time to finish   5s,   29.0% completed, time steps left  1022
  Time to finish   5s,   29.1% completed, time steps left  1021
  Time to finish   5s,   29.2% completed, time steps left  1020
  Time to finish   5s,   29.2% completed, time steps left  1019
  Time to finish   5s,   29.3% completed, time steps left  1018
  Time to finish   5s,   29.4% completed, time steps left  1017
  Time to finish   5s,   29.4% completed, time steps left  1016
  Time to finish   5s,   29.5% completed, time steps left  1015
  Time to finish   5s,   29.6% completed, time steps left  1014
  Time to finish   5s,   29.7% completed, time steps left  1013
  Time to finish   5s,   29.7% completed, time steps left  1012
  Time to finish   5s,   29.8% completed, time steps left  1011
  Time to finish   5s,   29.9% completed, time steps left  1010
  Time to finish   5s,   29.9% completed, time steps left  1009
  Time to finish   5s,   30.0% completed, time steps left  1008
  Time to finish   5s,   30.1% completed, time steps left  1007
  Time to finish   5s,   30.1% completed, time steps left  1006
  Time to finish   5s,   30.2% completed, time steps left  1005
  Time to finish   5s,   30.3% completed, time steps left  1004
  Time to finish   5s,   30.3% completed, time steps left  1003
  Time to finish   5s,   30.4% completed, time steps left  1002
  Time to finish   5s,   30.5% completed, time steps left  1001
  Time to finish   5s,   30.6% completed, time steps left  1000
  Time to finish   5s,   30.6% completed, time steps left  999
  Time to finish   5s,   30.7% completed, time steps left  998
  Time to finish   5s,   30.8% completed, time steps left  997
  Time to finish   5s,   30.8% completed, time steps left  996
  Time to finish   5s,   30.9% completed, time steps left  995
  Time to finish   5s,   31.0% completed, time steps left  994
  Time to finish   5s,   31.0% completed, time steps left  993
  Time to finish   5s,   31.1% completed, time steps left  992
  Time to finish   5s,   31.2% completed, time steps left  991
  Time to finish   5s,   31.2% completed, time steps left  990
  Time to finish   5s,   31.3% completed, time steps left  989
  Time to finish   5s,   31.4% completed, time steps left  988
  Time to finish   5s,   31.5% completed, time steps left  987
  Time to finish   5s,   31.5% completed, time steps left  986
  Time to finish   5s,   31.6% completed, time steps left  985
  Time to finish   5s,   31.7% completed, time steps left  984
  Time to finish   5s,   31.7% completed, time steps left  983
  Time to finish   5s,   31.8% completed, time steps left  982
  Time to finish   5s,   31.9% completed, time steps left  981
  Time to finish   5s,   31.9% completed, time steps left  980
  Time to finish   5s,   32.0% completed, time steps left  979
  Time to finish   5s,   32.1% completed, time steps left  978
  Time to finish   5s,   32.2% completed, time steps left  977
  Time to finish   5s,   32.2% completed, time steps left  976
  Time to finish   5s,   32.3% completed, time steps left  975
  Time to finish   5s,   32.4% completed, time steps left  974
  Time to finish   5s,   32.4% completed, time steps left  973
  Time to finish   5s,   32.5% completed, time steps left  972
  Time to finish   5s,   32.6% completed, time steps left  971
  Time to finish   5s,   32.6% completed, time steps left  970
  Time to finish   5s,   32.7% completed, time steps left  969
  Time to finish   5s,   32.8% completed, time steps left  968
  Time to finish   5s,   32.8% completed, time steps left  967
  Time to finish   5s,   32.9% completed, time steps left  966
  Time to finish   5s,   33.0% completed, time steps left  965
  Time to finish   5s,   33.1% completed, time steps left  964
  Time to finish   5s,   33.1% completed, time steps left  963
  Time to finish   5s,   33.2% completed, time steps left  962
  Time to finish   5s,   33.3% completed, time steps left  961
  Time to finish   5s,   33.3% completed, time steps left  960
  Time to finish   5s,   33.4% completed, time steps left  959
  Time to finish   5s,   33.5% completed, time steps left  958
  Time to finish   5s,   33.5% completed, time steps left  957
  Time to finish   5s,   33.6% completed, time steps left  956
  Time to finish   5s,   33.7% completed, time steps left  955
  Time to finish   5s,   33.8% completed, time steps left  954
  Time to finish   5s,   33.8% completed, time steps left  953
  Time to finish   5s,   33.9% completed, time steps left  952
  Time to finish   5s,   34.0% completed, time steps left  951
  Time to finish   5s,   34.0% completed, time steps left  950
  Time to finish   4s,   34.1% completed, time steps left  949
  Time to finish   4s,   34.2% completed, time steps left  948
  Time to finish   4s,   34.2% completed, time steps left  947
  Time to finish   4s,   34.3% completed, time steps left  946
  Time to finish   4s,   34.4% completed, time steps left  945
  Time to finish   4s,   34.4% completed, time steps left  944
  Time to finish   4s,   34.5% completed, time steps left  943
  Time to finish   4s,   34.6% completed, time steps left  942
  Time to finish   4s,   34.7% completed, time steps left  941
  Time to finish   4s,   34.7% completed, time steps left  940
  Time to finish   4s,   34.8% completed, time steps left  939
  Time to finish   4s,   34.9% completed, time steps left  938
  Time to finish   4s,   34.9% completed, time steps left  937
  Time to finish   4s,   35.0% completed, time steps left  936
  Time to finish   4s,   35.1% completed, time steps left  935
  Time to finish   4s,   35.1% completed, time steps left  934
  Time to finish   4s,   35.2% completed, time steps left  933
  Time to finish   4s,   35.3% completed, time steps left  932
  Time to finish   4s,   35.3% completed, time steps left  931
  Time to finish   4s,   35.4% completed, time steps left  930
  Time to finish   4s,   35.5% completed, time steps left  929
  Time to finish   4s,   35.6% completed, time steps left  928
  Time to finish   4s,   35.6% completed, time steps left  927
  Time to finish   4s,   35.7% completed, time steps left  926
  Time to finish   4s,   35.8% completed, time steps left  925
  Time to finish   4s,   35.8% completed, time steps left  924
  Time to finish   4s,   35.9% completed, time steps left  923
  Time to finish   4s,   36.0% completed, time steps left  922
  Time to finish   4s,   36.0% completed, time steps left  921
  Time to finish   4s,   36.1% completed, time steps left  920
  Time to finish   4s,   36.2% completed, time steps left  919
  Time to finish   4s,   36.2% completed, time steps left  918
  Time to finish   4s,   36.3% completed, time steps left  917
  Time to finish   4s,   36.4% completed, time steps left  916
  Time to finish   4s,   36.5% completed, time steps left  915
  Time to finish   4s,   36.5% completed, time steps left  914
  Time to finish   4s,   36.6% completed, time steps left  913
  Time to finish   4s,   36.7% completed, time steps left  912
  Time to finish   4s,   36.7% completed, time steps left  911
  Time to finish   4s,   36.8% completed, time steps left  910
  Time to finish   4s,   36.9% completed, time steps left  909
  Time to finish   4s,   36.9% completed, time steps left  908
  Time to finish   4s,   37.0% completed, time steps left  907
  Time to finish   4s,   37.1% completed, time steps left  906
  Time to finish   4s,   37.2% completed, time steps left  905
  Time to finish   4s,   37.2% completed, time steps left  904
  Time to finish   4s,   37.3% completed, time steps left  903
  Time to finish   4s,   37.4% completed, time steps left  902
  Time to finish   4s,   37.4% completed, time steps left  901
  Time to finish   4s,   37.5% completed, time steps left  900
  Time to finish   4s,   37.6% completed, time steps left  899
  Time to finish   4s,   37.6% completed, time steps left  898
  Time to finish   4s,   37.7% completed, time steps left  897
  Time to finish   4s,   37.8% completed, time steps left  896
  Time to finish   4s,   37.8% completed, time steps left  895
  Time to finish   4s,   37.9% completed, time steps left  894
  Time to finish   4s,   38.0% completed, time steps left  893
  Time to finish   4s,   38.1% completed, time steps left  892
  Time to finish   4s,   38.1% completed, time steps left  891
  Time to finish   4s,   38.2% completed, time steps left  890
  Time to finish   4s,   38.3% completed, time steps left  889
  Time to finish   4s,   38.3% completed, time steps left  888
  Time to finish   4s,   38.4% completed, time steps left  887
  Time to finish   4s,   38.5% completed, time steps left  886
  Time to finish   4s,   38.5% completed, time steps left  885
  Time to finish   4s,   38.6% completed, time steps left  884
  Time to finish   4s,   38.7% completed, time steps left  883
  Time to finish   4s,   38.8% completed, time steps left  882
  Time to finish   4s,   38.8% completed, time steps left  881
  Time to finish   4s,   38.9% completed, time steps left  880
  Time to finish   4s,   39.0% completed, time steps left  879
  Time to finish   4s,   39.0% completed, time steps left  878
  Time to finish   4s,   39.1% completed, time steps left  877
  Time to finish   4s,   39.2% completed, time steps left  876
  Time to finish   4s,   39.2% completed, time steps left  875
  Time to finish   4s,   39.3% completed, time steps left  874
  Time to finish   4s,   39.4% completed, time steps left  873
  Time to finish   4s,   39.4% completed, time steps left  872
  Time to finish   4s,   39.5% completed, time steps left  871
  Time to finish   4s,   39.6% completed, time steps left  870
  Time to finish   4s,   39.7% completed, time steps left  869
  Time to finish   4s,   39.7% completed, time steps left  868
  Time to finish   4s,   39.8% completed, time steps left  867
  Time to finish   4s,   39.9% completed, time steps left  866
  Time to finish   4s,   39.9% completed, time steps left  865
  Time to finish   4s,   40.0% completed, time steps left  864
  Time to finish   4s,   40.1% completed, time steps left  863
  Time to finish   4s,   40.1% completed, time steps left  862
  Time to finish   4s,   40.2% completed, time steps left  861
  Time to finish   4s,   40.3% completed, time steps left  860
  Time to finish   4s,   40.3% completed, time steps left  859
  Time to finish   4s,   40.4% completed, time steps left  858
  Time to finish   4s,   40.5% completed, time steps left  857
  Time to finish   4s,   40.6% completed, time steps left  856
  Time to finish   4s,   40.6% completed, time steps left  855
  Time to finish   4s,   40.7% completed, time steps left  854
  Time to finish   4s,   40.8% completed, time steps left  853
  Time to finish   4s,   40.8% completed, time steps left  852
  Time to finish   4s,   40.9% completed, time steps left  851
  Time to finish   4s,   41.0% completed, time steps left  850
  Time to finish   4s,   41.0% completed, time steps left  849
  Time to finish   4s,   41.1% completed, time steps left  848
  Time to finish   4s,   41.2% completed, time steps left  847
  Time to finish   4s,   41.2% completed, time steps left  846
  Time to finish   4s,   41.3% completed, time steps left  845
  Time to finish   4s,   41.4% completed, time steps left  844
  Time to finish   4s,   41.5% completed, time steps left  843
  Time to finish   4s,   41.5% completed, time steps left  842
  Time to finish   4s,   41.6% completed, time steps left  841
  Time to finish   4s,   41.7% completed, time steps left  840
  Time to finish   4s,   41.7% completed, time steps left  839
  Time to finish   4s,   41.8% completed, time steps left  838
  Time to finish   4s,   41.9% completed, time steps left  837
  Time to finish   4s,   41.9% completed, time steps left  836
  Time to finish   4s,   42.0% completed, time steps left  835
  Time to finish   4s,   42.1% completed, time steps left  834
  Time to finish   4s,   42.2% completed, time steps left  833
  Time to finish   4s,   42.2% completed, time steps left  832
  Time to finish   4s,   42.3% completed, time steps left  831
  Time to finish   4s,   42.4% completed, time steps left  830
  Time to finish   4s,   42.4% completed, time steps left  829
  Time to finish   4s,   42.5% completed, time steps left  828
  Time to finish   4s,   42.6% completed, time steps left  827
  Time to finish   4s,   42.6% completed, time steps left  826
  Time to finish   4s,   42.7% completed, time steps left  825
  Time to finish   4s,   42.8% completed, time steps left  824
  Time to finish   4s,   42.8% completed, time steps left  823
  Time to finish   4s,   42.9% completed, time steps left  822
  Time to finish   4s,   43.0% completed, time steps left  821
  Time to finish   4s,   43.1% completed, time steps left  820
  Time to finish   4s,   43.1% completed, time steps left  819
  Time to finish   4s,   43.2% completed, time steps left  818
  Time to finish   4s,   43.3% completed, time steps left  817
  Time to finish   4s,   43.3% completed, time steps left  816
  Time to finish   4s,   43.4% completed, time steps left  815
  Time to finish   4s,   43.5% completed, time steps left  814
  Time to finish   4s,   43.5% completed, time steps left  813
  Time to finish   4s,   43.6% completed, time steps left  812
  Time to finish   4s,   43.7% completed, time steps left  811
  Time to finish   4s,   43.8% completed, time steps left  810
  Time to finish   4s,   43.8% completed, time steps left  809
  Time to finish   4s,   43.9% completed, time steps left  808
  Time to finish   4s,   44.0% completed, time steps left  807
  Time to finish   4s,   44.0% completed, time steps left  806
  Time to finish   4s,   44.1% completed, time steps left  805
  Time to finish   4s,   44.2% completed, time steps left  804
  Time to finish   4s,   44.2% completed, time steps left  803
  Time to finish   4s,   44.3% completed, time steps left  802
  Time to finish   4s,   44.4% completed, time steps left  801
  Time to finish   4s,   44.4% completed, time steps left  800
  Time to finish   4s,   44.5% completed, time steps left  799
  Time to finish   4s,   44.6% completed, time steps left  798
  Time to finish   4s,   44.7% completed, time steps left  797
  Time to finish   4s,   44.7% completed, time steps left  796
  Time to finish   4s,   44.8% completed, time steps left  795
  Time to finish   4s,   44.9% completed, time steps left  794
  Time to finish   4s,   44.9% completed, time steps left  793
  Time to finish   4s,   45.0% completed, time steps left  792
  Time to finish   4s,   45.1% completed, time steps left  791
  Time to finish   4s,   45.1% completed, time steps left  790
  Time to finish   4s,   45.2% completed, time steps left  789
  Time to finish   4s,   45.3% completed, time steps left  788
  Time to finish   4s,   45.3% completed, time steps left  787
  Time to finish   4s,   45.4% completed, time steps left  786
  Time to finish   4s,   45.5% completed, time steps left  785
  Time to finish   4s,   45.6% completed, time steps left  784
  Time to finish   4s,   45.6% completed, time steps left  783
  Time to finish   4s,   45.7% completed, time steps left  782
  Time to finish   4s,   45.8% completed, time steps left  781
  Time to finish   4s,   45.8% completed, time steps left  780
  Time to finish   4s,   45.9% completed, time steps left  779
  Time to finish   4s,   46.0% completed, time steps left  778
  Time to finish   4s,   46.0% completed, time steps left  777
  Time to finish   4s,   46.1% completed, time steps left  776
  Time to finish   4s,   46.2% completed, time steps left  775
  Time to finish   4s,   46.2% completed, time steps left  774
  Time to finish   4s,   46.3% completed, time steps left  773
  Time to finish   4s,   46.4% completed, time steps left  772
  Time to finish   4s,   46.5% completed, time steps left  771
  Time to finish   4s,   46.5% completed, time steps left  770
  Time to finish   4s,   46.6% completed, time steps left  769
  Time to finish   4s,   46.7% completed, time steps left  768
  Time to finish   4s,   46.7% completed, time steps left  767
  Time to finish   4s,   46.8% completed, time steps left  766
  Time to finish   4s,   46.9% completed, time steps left  765
  Time to finish   4s,   46.9% completed, time steps left  764
  Time to finish   4s,   47.0% completed, time steps left  763
  Time to finish   3s,   47.1% completed, time steps left  762
  Time to finish   3s,   47.2% completed, time steps left  761
  Time to finish   3s,   47.2% completed, time steps left  760
  Time to finish   3s,   47.3% completed, time steps left  759
  Time to finish   3s,   47.4% completed, time steps left  758
  Time to finish   3s,   47.4% completed, time steps left  757
  Time to finish   3s,   47.5% completed, time steps left  756
  Time to finish   3s,   47.6% completed, time steps left  755
  Time to finish   3s,   47.6% completed, time steps left  754
  Time to finish   3s,   47.7% completed, time steps left  753
  Time to finish   3s,   47.8% completed, time steps left  752
  Time to finish   3s,   47.8% completed, time steps left  751
  Time to finish   3s,   47.9% completed, time steps left  750
  Time to finish   3s,   48.0% completed, time steps left  749
  Time to finish   3s,   48.1% completed, time steps left  748
  Time to finish   3s,   48.1% completed, time steps left  747
  Time to finish   3s,   48.2% completed, time steps left  746
  Time to finish   3s,   48.3% completed, time steps left  745
  Time to finish   3s,   48.3% completed, time steps left  744
  Time to finish   3s,   48.4% completed, time steps left  743
  Time to finish   3s,   48.5% completed, time steps left  742
  Time to finish   3s,   48.5% completed, time steps left  741
  Time to finish   3s,   48.6% completed, time steps left  740
  Time to finish   3s,   48.7% completed, time steps left  739
  Time to finish   3s,   48.8% completed, time steps left  738
  Time to finish   3s,   48.8% completed, time steps left  737
  Time to finish   3s,   48.9% completed, time steps left  736
  Time to finish   3s,   49.0% completed, time steps left  735
  Time to finish   3s,   49.0% completed, time steps left  734
  Time to finish   3s,   49.1% completed, time steps left  733
  Time to finish   3s,   49.2% completed, time steps left  732
  Time to finish   3s,   49.2% completed, time steps left  731
  Time to finish   3s,   49.3% completed, time steps left  730
  Time to finish   3s,   49.4% completed, time steps left  729
  Time to finish   3s,   49.4% completed, time steps left  728
  Time to finish   3s,   49.5% completed, time steps left  727
  Time to finish   3s,   49.6% completed, time steps left  726
  Time to finish   3s,   49.7% completed, time steps left  725
  Time to finish   3s,   49.7% completed, time steps left  724
  Time to finish   3s,   49.8% completed, time steps left  723
  Time to finish   3s,   49.9% completed, time steps left  722
  Time to finish   3s,   49.9% completed, time steps left  721
  Time to finish   3s,   50.0% completed, time steps left  720
  Time to finish   3s,   50.1% completed, time steps left  719
  Time to finish   3s,   50.1% completed, time steps left  718
  Time to finish   3s,   50.2% completed, time steps left  717
  Time to finish   3s,   50.3% completed, time steps left  716
  Time to finish   3s,   50.3% completed, time steps left  715
  Time to finish   3s,   50.4% completed, time steps left  714
  Time to finish   3s,   50.5% completed, time steps left  713
  Time to finish   3s,   50.6% completed, time steps left  712
  Time to finish   3s,   50.6% completed, time steps left  711
  Time to finish   3s,   50.7% completed, time steps left  710
  Time to finish   3s,   50.8% completed, time steps left  709
  Time to finish   3s,   50.8% completed, time steps left  708
  Time to finish   3s,   50.9% completed, time steps left  707
  Time to finish   3s,   51.0% completed, time steps left  706
  Time to finish   3s,   51.0% completed, time steps left  705
  Time to finish   3s,   51.1% completed, time steps left  704
  Time to finish   3s,   51.2% completed, time steps left  703
  Time to finish   3s,   51.2% completed, time steps left  702
  Time to finish   3s,   51.3% completed, time steps left  701
  Time to finish   3s,   51.4% completed, time steps left  700
  Time to finish   3s,   51.5% completed, time steps left  699
  Time to finish   3s,   51.5% completed, time steps left  698
  Time to finish   3s,   51.6% completed, time steps left  697
  Time to finish   3s,   51.7% completed, time steps left  696
  Time to finish   3s,   51.7% completed, time steps left  695
  Time to finish   3s,   51.8% completed, time steps left  694
  Time to finish   3s,   51.9% completed, time steps left  693
  Time to finish   3s,   51.9% completed, time steps left  692
  Time to finish   3s,   52.0% completed, time steps left  691
  Time to finish   3s,   52.1% completed, time steps left  690
  Time to finish   3s,   52.2% completed, time steps left  689
  Time to finish   3s,   52.2% completed, time steps left  688
  Time to finish   3s,   52.3% completed, time steps left  687
  Time to finish   3s,   52.4% completed, time steps left  686
  Time to finish   3s,   52.4% completed, time steps left  685
  Time to finish   3s,   52.5% completed, time steps left  684
  Time to finish   3s,   52.6% completed, time steps left  683
  Time to finish   3s,   52.6% completed, time steps left  682
  Time to finish   3s,   52.7% completed, time steps left  681
  Time to finish   3s,   52.8% completed, time steps left  680
  Time to finish   3s,   52.8% completed, time steps left  679
  Time to finish   3s,   52.9% completed, time steps left  678
  Time to finish   3s,   53.0% completed, time steps left  677
  Time to finish   3s,   53.1% completed, time steps left  676
  Time to finish   3s,   53.1% completed, time steps left  675
  Time to finish   3s,   53.2% completed, time steps left  674
  Time to finish   3s,   53.3% completed, time steps left  673
  Time to finish   3s,   53.3% completed, time steps left  672
  Time to finish   3s,   53.4% completed, time steps left  671
  Time to finish   3s,   53.5% completed, time steps left  670
  Time to finish   3s,   53.5% completed, time steps left  669
  Time to finish   3s,   53.6% completed, time steps left  668
  Time to finish   3s,   53.7% completed, time steps left  667
  Time to finish   3s,   53.8% completed, time steps left  666
  Time to finish   3s,   53.8% completed, time steps left  665
  Time to finish   3s,   53.9% completed, time steps left  664
  Time to finish   3s,   54.0% completed, time steps left  663
  Time to finish   3s,   54.0% completed, time steps left  662
  Time to finish   3s,   54.1% completed, time steps left  661
  Time to finish   3s,   54.2% completed, time steps left  660
  Time to finish   3s,   54.2% completed, time steps left  659
  Time to finish   3s,   54.3% completed, time steps left  658
  Time to finish   3s,   54.4% completed, time steps left  657
  Time to finish   3s,   54.4% completed, time steps left  656
  Time to finish   3s,   54.5% completed, time steps left  655
  Time to finish   3s,   54.6% completed, time steps left  654
  Time to finish   3s,   54.7% completed, time steps left  653
  Time to finish   3s,   54.7% completed, time steps left  652
  Time to finish   3s,   54.8% completed, time steps left  651
  Time to finish   3s,   54.9% completed, time steps left  650
  Time to finish   3s,   54.9% completed, time steps left  649
  Time to finish   3s,   55.0% completed, time steps left  648
  Time to finish   3s,   55.1% completed, time steps left  647
  Time to finish   3s,   55.1% completed, time steps left  646
  Time to finish   3s,   55.2% completed, time steps left  645
  Time to finish   3s,   55.3% completed, time steps left  644
  Time to finish   3s,   55.3% completed, time steps left  643
  Time to finish   3s,   55.4% completed, time steps left  642
  Time to finish   3s,   55.5% completed, time steps left  641
  Time to finish   3s,   55.6% completed, time steps left  640
  Time to finish   3s,   55.6% completed, time steps left  639
  Time to finish   3s,   55.7% completed, time steps left  638
  Time to finish   3s,   55.8% completed, time steps left  637
  Time to finish   3s,   55.8% completed, time steps left  636
  Time to finish   3s,   55.9% completed, time steps left  635
  Time to finish   3s,   56.0% completed, time steps left  634
  Time to finish   3s,   56.0% completed, time steps left  633
  Time to finish   3s,   56.1% completed, time steps left  632
  Time to finish   3s,   56.2% completed, time steps left  631
  Time to finish   3s,   56.2% completed, time steps left  630
  Time to finish   3s,   56.3% completed, time steps left  629
  Time to finish   3s,   56.4% completed, time steps left  628
  Time to finish   3s,   56.5% completed, time steps left  627
  Time to finish   3s,   56.5% completed, time steps left  626
  Time to finish   3s,   56.6% completed, time steps left  625
  Time to finish   3s,   56.7% completed, time steps left  624
  Time to finish   3s,   56.7% completed, time steps left  623
  Time to finish   3s,   56.8% completed, time steps left  622
  Time to finish   3s,   56.9% completed, time steps left  621
  Time to finish   3s,   56.9% completed, time steps left  620
  Time to finish   3s,   57.0% completed, time steps left  619
  Time to finish   3s,   57.1% completed, time steps left  618
  Time to finish   3s,   57.2% completed, time steps left  617
  Time to finish   3s,   57.2% completed, time steps left  616
  Time to finish   3s,   57.3% completed, time steps left  615
  Time to finish   3s,   57.4% completed, time steps left  614
  Time to finish   3s,   57.4% completed, time steps left  613
  Time to finish   3s,   57.5% completed, time steps left  612
  Time to finish   3s,   57.6% completed, time steps left  611
  Time to finish   3s,   57.6% completed, time steps left  610
  Time to finish   3s,   57.7% completed, time steps left  609
  Time to finish   3s,   57.8% completed, time steps left  608
  Time to finish   3s,   57.8% completed, time steps left  607
  Time to finish   3s,   57.9% completed, time steps left  606
  Time to finish   3s,   58.0% completed, time steps left  605
  Time to finish   3s,   58.1% completed, time steps left  604
  Time to finish   3s,   58.1% completed, time steps left  603
  Time to finish   3s,   58.2% completed, time steps left  602
  Time to finish   3s,   58.3% completed, time steps left  601
  Time to finish   3s,   58.3% completed, time steps left  600
  Time to finish   3s,   58.4% completed, time steps left  599
  Time to finish   3s,   58.5% completed, time steps left  598
  Time to finish   3s,   58.5% completed, time steps left  597
  Time to finish   3s,   58.6% completed, time steps left  596
  Time to finish   3s,   58.7% completed, time steps left  595
  Time to finish   3s,   58.8% completed, time steps left  594
  Time to finish   3s,   58.8% completed, time steps left  593
  Time to finish   3s,   58.9% completed, time steps left  592
  Time to finish   3s,   59.0% completed, time steps left  591
  Time to finish   3s,   59.0% completed, time steps left  590
  Time to finish   3s,   59.1% completed, time steps left  589
  Time to finish   3s,   59.2% completed, time steps left  588
  Time to finish   3s,   59.2% completed, time steps left  587
  Time to finish   3s,   59.3% completed, time steps left  586
  Time to finish   3s,   59.4% completed, time steps left  585
  Time to finish   3s,   59.4% completed, time steps left  584
  Time to finish   3s,   59.5% completed, time steps left  583
  Time to finish   3s,   59.6% completed, time steps left  582
  Time to finish   3s,   59.7% completed, time steps left  581
  Time to finish   3s,   59.7% completed, time steps left  580
  Time to finish   3s,   59.8% completed, time steps left  579
  Time to finish   3s,   59.9% completed, time steps left  578
  Time to finish   3s,   59.9% completed, time steps left  577
  Time to finish   3s,   60.0% completed, time steps left  576
  Time to finish   3s,   60.1% completed, time steps left  575
  Time to finish   3s,   60.1% completed, time steps left  574
  Time to finish   3s,   60.2% completed, time steps left  573
  Time to finish   3s,   60.3% completed, time steps left  572
  Time to finish   3s,   60.3% completed, time steps left  571
  Time to finish   3s,   60.4% completed, time steps left  570
  Time to finish   3s,   60.5% completed, time steps left  569
  Time to finish   3s,   60.6% completed, time steps left  568
  Time to finish   3s,   60.6% completed, time steps left  567
  Time to finish   3s,   60.7% completed, time steps left  566
  Time to finish   3s,   60.8% completed, time steps left  565
  Time to finish   3s,   60.8% completed, time steps left  564
  Time to finish   3s,   60.9% completed, time steps left  563
  Time to finish   3s,   61.0% completed, time steps left  562
  Time to finish   3s,   61.0% completed, time steps left  561
  Time to finish   3s,   61.1% completed, time steps left  560
  Time to finish   3s,   61.2% completed, time steps left  559
  Time to finish   3s,   61.3% completed, time steps left  558
  Time to finish   3s,   61.3% completed, time steps left  557
  Time to finish   2s,   61.4% completed, time steps left  556
  Time to finish   2s,   61.5% completed, time steps left  555
  Time to finish   2s,   61.5% completed, time steps left  554
  Time to finish   2s,   61.6% completed, time steps left  553
  Time to finish   2s,   61.7% completed, time steps left  552
  Time to finish   2s,   61.7% completed, time steps left  551
  Time to finish   2s,   61.8% completed, time steps left  550
  Time to finish   2s,   61.9% completed, time steps left  549
  Time to finish   2s,   61.9% completed, time steps left  548
  Time to finish   2s,   62.0% completed, time steps left  547
  Time to finish   2s,   62.1% completed, time steps left  546
  Time to finish   2s,   62.2% completed, time steps left  545
  Time to finish   2s,   62.2% completed, time steps left  544
  Time to finish   2s,   62.3% completed, time steps left  543
  Time to finish   2s,   62.4% completed, time steps left  542
  Time to finish   2s,   62.4% completed, time steps left  541
  Time to finish   2s,   62.5% completed, time steps left  540
  Time to finish   2s,   62.6% completed, time steps left  539
  Time to finish   2s,   62.6% completed, time steps left  538
  Time to finish   2s,   62.7% completed, time steps left  537
  Time to finish   2s,   62.8% completed, time steps left  536
  Time to finish   2s,   62.8% completed, time steps left  535
  Time to finish   2s,   62.9% completed, time steps left  534
  Time to finish   2s,   63.0% completed, time steps left  533
  Time to finish   2s,   63.1% completed, time steps left  532
  Time to finish   2s,   63.1% completed, time steps left  531
  Time to finish   2s,   63.2% completed, time steps left  530
  Time to finish   2s,   63.3% completed, time steps left  529
  Time to finish   2s,   63.3% completed, time steps left  528
  Time to finish   2s,   63.4% completed, time steps left  527
  Time to finish   2s,   63.5% completed, time steps left  526
  Time to finish   2s,   63.5% completed, time steps left  525
  Time to finish   2s,   63.6% completed, time steps left  524
  Time to finish   2s,   63.7% completed, time steps left  523
  Time to finish   2s,   63.7% completed, time steps left  522
  Time to finish   2s,   63.8% completed, time steps left  521
  Time to finish   2s,   63.9% completed, time steps left  520
  Time to finish   2s,   64.0% completed, time steps left  519
  Time to finish   2s,   64.0% completed, time steps left  518
  Time to finish   2s,   64.1% completed, time steps left  517
  Time to finish   2s,   64.2% completed, time steps left  516
  Time to finish   2s,   64.2% completed, time steps left  515
  Time to finish   2s,   64.3% completed, time steps left  514
  Time to finish   2s,   64.4% completed, time steps left  513
  Time to finish   2s,   64.4% completed, time steps left  512
  Time to finish   2s,   64.5% completed, time steps left  511
  Time to finish   2s,   64.6% completed, time steps left  510
  Time to finish   2s,   64.7% completed, time steps left  509
  Time to finish   2s,   64.7% completed, time steps left  508
  Time to finish   2s,   64.8% completed, time steps left  507
  Time to finish   2s,   64.9% completed, time steps left  506
  Time to finish   2s,   64.9% completed, time steps left  505
  Time to finish   2s,   65.0% completed, time steps left  504
  Time to finish   2s,   65.1% completed, time steps left  503
  Time to finish   2s,   65.1% completed, time steps left  502
  Time to finish   2s,   65.2% completed, time steps left  501
  Time to finish   2s,   65.3% completed, time steps left  500
  Time to finish   2s,   65.3% completed, time steps left  499
  Time to finish   2s,   65.4% completed, time steps left  498
  Time to finish   2s,   65.5% completed, time steps left  497
  Time to finish   2s,   65.6% completed, time steps left  496
  Time to finish   2s,   65.6% completed, time steps left  495
  Time to finish   2s,   65.7% completed, time steps left  494
  Time to finish   2s,   65.8% completed, time steps left  493
  Time to finish   2s,   65.8% completed, time steps left  492
  Time to finish   2s,   65.9% completed, time steps left  491
  Time to finish   2s,   66.0% completed, time steps left  490
  Time to finish   2s,   66.0% completed, time steps left  489
  Time to finish   2s,   66.1% completed, time steps left  488
  Time to finish   2s,   66.2% completed, time steps left  487
  Time to finish   2s,   66.2% completed, time steps left  486
  Time to finish   2s,   66.3% completed, time steps left  485
  Time to finish   2s,   66.4% completed, time steps left  484
  Time to finish   2s,   66.5% completed, time steps left  483
  Time to finish   2s,   66.5% completed, time steps left  482
  Time to finish   2s,   66.6% completed, time steps left  481
  Time to finish   2s,   66.7% completed, time steps left  480
  Time to finish   2s,   66.7% completed, time steps left  479
  Time to finish   2s,   66.8% completed, time steps left  478
  Time to finish   2s,   66.9% completed, time steps left  477
  Time to finish   2s,   66.9% completed, time steps left  476
  Time to finish   2s,   67.0% completed, time steps left  475
  Time to finish   2s,   67.1% completed, time steps left  474
  Time to finish   2s,   67.2% completed, time steps left  473
  Time to finish   2s,   67.2% completed, time steps left  472
  Time to finish   2s,   67.3% completed, time steps left  471
  Time to finish   2s,   67.4% completed, time steps left  470
  Time to finish   2s,   67.4% completed, time steps left  469
  Time to finish   2s,   67.5% completed, time steps left  468
  Time to finish   2s,   67.6% completed, time steps left  467
  Time to finish   2s,   67.6% completed, time steps left  466
  Time to finish   2s,   67.7% completed, time steps left  465
  Time to finish   2s,   67.8% completed, time steps left  464
  Time to finish   2s,   67.8% completed, time steps left  463
  Time to finish   2s,   67.9% completed, time steps left  462
  Time to finish   2s,   68.0% completed, time steps left  461
  Time to finish   2s,   68.1% completed, time steps left  460
  Time to finish   2s,   68.1% completed, time steps left  459
  Time to finish   2s,   68.2% completed, time steps left  458
  Time to finish   2s,   68.3% completed, time steps left  457
  Time to finish   2s,   68.3% completed, time steps left  456
  Time to finish   2s,   68.4% completed, time steps left  455
  Time to finish   2s,   68.5% completed, time steps left  454
  Time to finish   2s,   68.5% completed, time steps left  453
  Time to finish   2s,   68.6% completed, time steps left  452
  Time to finish   2s,   68.7% completed, time steps left  451
  Time to finish   2s,   68.8% completed, time steps left  450
  Time to finish   2s,   68.8% completed, time steps left  449
  Time to finish   2s,   68.9% completed, time steps left  448
  Time to finish   2s,   69.0% completed, time steps left  447
  Time to finish   2s,   69.0% completed, time steps left  446
  Time to finish   2s,   69.1% completed, time steps left  445
  Time to finish   2s,   69.2% completed, time steps left  444
  Time to finish   2s,   69.2% completed, time steps left  443
  Time to finish   2s,   69.3% completed, time steps left  442
  Time to finish   2s,   69.4% completed, time steps left  441
  Time to finish   2s,   69.4% completed, time steps left  440
  Time to finish   2s,   69.5% completed, time steps left  439
  Time to finish   2s,   69.6% completed, time steps left  438
  Time to finish   2s,   69.7% completed, time steps left  437
  Time to finish   2s,   69.7% completed, time steps left  436
  Time to finish   2s,   69.8% completed, time steps left  435
  Time to finish   2s,   69.9% completed, time steps left  434
  Time to finish   2s,   69.9% completed, time steps left  433
  Time to finish   2s,   70.0% completed, time steps left  432
  Time to finish   2s,   70.1% completed, time steps left  431
  Time to finish   2s,   70.1% completed, time steps left  430
  Time to finish   2s,   70.2% completed, time steps left  429
  Time to finish   2s,   70.3% completed, time steps left  428
  Time to finish   2s,   70.3% completed, time steps left  427
  Time to finish   2s,   70.4% completed, time steps left  426
  Time to finish   2s,   70.5% completed, time steps left  425
  Time to finish   2s,   70.6% completed, time steps left  424
  Time to finish   2s,   70.6% completed, time steps left  423
  Time to finish   2s,   70.7% completed, time steps left  422
  Time to finish   2s,   70.8% completed, time steps left  421
  Time to finish   2s,   70.8% completed, time steps left  420
  Time to finish   2s,   70.9% completed, time steps left  419
  Time to finish   2s,   71.0% completed, time steps left  418
  Time to finish   2s,   71.0% completed, time steps left  417
  Time to finish   2s,   71.1% completed, time steps left  416
  Time to finish   2s,   71.2% completed, time steps left  415
  Time to finish   2s,   71.2% completed, time steps left  414
  Time to finish   2s,   71.3% completed, time steps left  413
  Time to finish   2s,   71.4% completed, time steps left  412
  Time to finish   2s,   71.5% completed, time steps left  411
  Time to finish   2s,   71.5% completed, time steps left  410
  Time to finish   2s,   71.6% completed, time steps left  409
  Time to finish   2s,   71.7% completed, time steps left  408
  Time to finish   2s,   71.7% completed, time steps left  407
  Time to finish   2s,   71.8% completed, time steps left  406
  Time to finish   2s,   71.9% completed, time steps left  405
  Time to finish   2s,   71.9% completed, time steps left  404
  Time to finish   2s,   72.0% completed, time steps left  403
  Time to finish   2s,   72.1% completed, time steps left  402
  Time to finish   2s,   72.2% completed, time steps left  401
  Time to finish   2s,   72.2% completed, time steps left  400
  Time to finish   2s,   72.3% completed, time steps left  399
  Time to finish   2s,   72.4% completed, time steps left  398
  Time to finish   2s,   72.4% completed, time steps left  397
  Time to finish   2s,   72.5% completed, time steps left  396
  Time to finish   2s,   72.6% completed, time steps left  395
  Time to finish   2s,   72.6% completed, time steps left  394
  Time to finish   2s,   72.7% completed, time steps left  393
  Time to finish   2s,   72.8% completed, time steps left  392
  Time to finish   2s,   72.8% completed, time steps left  391
  Time to finish   2s,   72.9% completed, time steps left  390
  Time to finish   2s,   73.0% completed, time steps left  389
  Time to finish   2s,   73.1% completed, time steps left  388
  Time to finish   2s,   73.1% completed, time steps left  387
  Time to finish   2s,   73.2% completed, time steps left  386
  Time to finish   2s,   73.3% completed, time steps left  385
  Time to finish   2s,   73.3% completed, time steps left  384
  Time to finish   2s,   73.4% completed, time steps left  383
  Time to finish   2s,   73.5% completed, time steps left  382
  Time to finish   2s,   73.5% completed, time steps left  381
  Time to finish   2s,   73.6% completed, time steps left  380
  Time to finish   2s,   73.7% completed, time steps left  379
  Time to finish   2s,   73.8% completed, time steps left  378
  Time to finish   2s,   73.8% completed, time steps left  377
  Time to finish   2s,   73.9% completed, time steps left  376
  Time to finish   2s,   74.0% completed, time steps left  375
  Time to finish   2s,   74.0% completed, time steps left  374
  Time to finish   2s,   74.1% completed, time steps left  373
  Time to finish   2s,   74.2% completed, time steps left  372
  Time to finish   2s,   74.2% completed, time steps left  371
  Time to finish   2s,   74.3% completed, time steps left  370
  Time to finish   2s,   74.4% completed, time steps left  369
  Time to finish   2s,   74.4% completed, time steps left  368
  Time to finish   2s,   74.5% completed, time steps left  367
  Time to finish   2s,   74.6% completed, time steps left  366
  Time to finish   2s,   74.7% completed, time steps left  365
  Time to finish   2s,   74.7% completed, time steps left  364
  Time to finish   2s,   74.8% completed, time steps left  363
  Time to finish   2s,   74.9% completed, time steps left  362
  Time to finish   2s,   74.9% completed, time steps left  361
  Time to finish   2s,   75.0% completed, time steps left  360
  Time to finish   2s,   75.1% completed, time steps left  359
  Time to finish   2s,   75.1% completed, time steps left  358
  Time to finish   2s,   75.2% completed, time steps left  357
  Time to finish   2s,   75.3% completed, time steps left  356
  Time to finish   2s,   75.3% completed, time steps left  355
  Time to finish   2s,   75.4% completed, time steps left  354
  Time to finish   2s,   75.5% completed, time steps left  353
  Time to finish   2s,   75.6% completed, time steps left  352
  Time to finish   2s,   75.6% completed, time steps left  351
  Time to finish   2s,   75.7% completed, time steps left  350
  Time to finish   2s,   75.8% completed, time steps left  349
  Time to finish   2s,   75.8% completed, time steps left  348
  Time to finish   2s,   75.9% completed, time steps left  347
  Time to finish   2s,   76.0% completed, time steps left  346
  Time to finish   2s,   76.0% completed, time steps left  345
  Time to finish   2s,   76.1% completed, time steps left  344
  Time to finish   2s,   76.2% completed, time steps left  343
  Time to finish   2s,   76.2% completed, time steps left  342
  Time to finish   2s,   76.3% completed, time steps left  341
  Time to finish   2s,   76.4% completed, time steps left  340
  Time to finish   2s,   76.5% completed, time steps left  339
  Time to finish   2s,   76.5% completed, time steps left  338
  Time to finish   2s,   76.6% completed, time steps left  337
  Time to finish   2s,   76.7% completed, time steps left  336
  Time to finish   2s,   76.7% completed, time steps left  335
  Time to finish   2s,   76.8% completed, time steps left  334
  Time to finish   1s,   76.9% completed, time steps left  333
  Time to finish   1s,   76.9% completed, time steps left  332
  Time to finish   1s,   77.0% completed, time steps left  331
  Time to finish   1s,   77.1% completed, time steps left  330
  Time to finish   1s,   77.2% completed, time steps left  329
  Time to finish   1s,   77.2% completed, time steps left  328
  Time to finish   1s,   77.3% completed, time steps left  327
  Time to finish   1s,   77.4% completed, time steps left  326
  Time to finish   1s,   77.4% completed, time steps left  325
  Time to finish   1s,   77.5% completed, time steps left  324
  Time to finish   1s,   77.6% completed, time steps left  323
  Time to finish   1s,   77.6% completed, time steps left  322
  Time to finish   1s,   77.7% completed, time steps left  321
  Time to finish   1s,   77.8% completed, time steps left  320
  Time to finish   1s,   77.8% completed, time steps left  319
  Time to finish   1s,   77.9% completed, time steps left  318
  Time to finish   1s,   78.0% completed, time steps left  317
  Time to finish   1s,   78.1% completed, time steps left  316
  Time to finish   1s,   78.1% completed, time steps left  315
  Time to finish   1s,   78.2% completed, time steps left  314
  Time to finish   1s,   78.3% completed, time steps left  313
  Time to finish   1s,   78.3% completed, time steps left  312
  Time to finish   1s,   78.4% completed, time steps left  311
  Time to finish   1s,   78.5% completed, time steps left  310
  Time to finish   1s,   78.5% completed, time steps left  309
  Time to finish   1s,   78.6% completed, time steps left  308
  Time to finish   1s,   78.7% completed, time steps left  307
  Time to finish   1s,   78.8% completed, time steps left  306
  Time to finish   1s,   78.8% completed, time steps left  305
  Time to finish   1s,   78.9% completed, time steps left  304
  Time to finish   1s,   79.0% completed, time steps left  303
  Time to finish   1s,   79.0% completed, time steps left  302
  Time to finish   1s,   79.1% completed, time steps left  301
  Time to finish   1s,   79.2% completed, time steps left  300
  Time to finish   1s,   79.2% completed, time steps left  299
  Time to finish   1s,   79.3% completed, time steps left  298
  Time to finish   1s,   79.4% completed, time steps left  297
  Time to finish   1s,   79.4% completed, time steps left  296
  Time to finish   1s,   79.5% completed, time steps left  295
  Time to finish   1s,   79.6% completed, time steps left  294
  Time to finish   1s,   79.7% completed, time steps left  293
  Time to finish   1s,   79.7% completed, time steps left  292
  Time to finish   1s,   79.8% completed, time steps left  291
  Time to finish   1s,   79.9% completed, time steps left  290
  Time to finish   1s,   79.9% completed, time steps left  289
  Time to finish   1s,   80.0% completed, time steps left  288
  Time to finish   1s,   80.1% completed, time steps left  287
  Time to finish   1s,   80.1% completed, time steps left  286
  Time to finish   1s,   80.2% completed, time steps left  285
  Time to finish   1s,   80.3% completed, time steps left  284
  Time to finish   1s,   80.3% completed, time steps left  283
  Time to finish   1s,   80.4% completed, time steps left  282
  Time to finish   1s,   80.5% completed, time steps left  281
  Time to finish   1s,   80.6% completed, time steps left  280
  Time to finish   1s,   80.6% completed, time steps left  279
  Time to finish   1s,   80.7% completed, time steps left  278
  Time to finish   1s,   80.8% completed, time steps left  277
  Time to finish   1s,   80.8% completed, time steps left  276
  Time to finish   1s,   80.9% completed, time steps left  275
  Time to finish   1s,   81.0% completed, time steps left  274
  Time to finish   1s,   81.0% completed, time steps left  273
  Time to finish   1s,   81.1% completed, time steps left  272
  Time to finish   1s,   81.2% completed, time steps left  271
  Time to finish   1s,   81.2% completed, time steps left  270
  Time to finish   1s,   81.3% completed, time steps left  269
  Time to finish   1s,   81.4% completed, time steps left  268
  Time to finish   1s,   81.5% completed, time steps left  267
  Time to finish   1s,   81.5% completed, time steps left  266
  Time to finish   1s,   81.6% completed, time steps left  265
  Time to finish   1s,   81.7% completed, time steps left  264
  Time to finish   1s,   81.7% completed, time steps left  263
  Time to finish   1s,   81.8% completed, time steps left  262
  Time to finish   1s,   81.9% completed, time steps left  261
  Time to finish   1s,   81.9% completed, time steps left  260
  Time to finish   1s,   82.0% completed, time steps left  259
  Time to finish   1s,   82.1% completed, time steps left  258
  Time to finish   1s,   82.2% completed, time steps left  257
  Time to finish   1s,   82.2% completed, time steps left  256
  Time to finish   1s,   82.3% completed, time steps left  255
  Time to finish   1s,   82.4% completed, time steps left  254
  Time to finish   1s,   82.4% completed, time steps left  253
  Time to finish   1s,   82.5% completed, time steps left  252
  Time to finish   1s,   82.6% completed, time steps left  251
  Time to finish   1s,   82.6% completed, time steps left  250
  Time to finish   1s,   82.7% completed, time steps left  249
  Time to finish   1s,   82.8% completed, time steps left  248
  Time to finish   1s,   82.8% completed, time steps left  247
  Time to finish   1s,   82.9% completed, time steps left  246
  Time to finish   1s,   83.0% completed, time steps left  245
  Time to finish   1s,   83.1% completed, time steps left  244
  Time to finish   1s,   83.1% completed, time steps left  243
  Time to finish   1s,   83.2% completed, time steps left  242
  Time to finish   1s,   83.3% completed, time steps left  241
  Time to finish   1s,   83.3% completed, time steps left  240
  Time to finish   1s,   83.4% completed, time steps left  239
  Time to finish   1s,   83.5% completed, time steps left  238
  Time to finish   1s,   83.5% completed, time steps left  237
  Time to finish   1s,   83.6% completed, time steps left  236
  Time to finish   1s,   83.7% completed, time steps left  235
  Time to finish   1s,   83.8% completed, time steps left  234
  Time to finish   1s,   83.8% completed, time steps left  233
  Time to finish   1s,   83.9% completed, time steps left  232
  Time to finish   1s,   84.0% completed, time steps left  231
  Time to finish   1s,   84.0% completed, time steps left  230
  Time to finish   1s,   84.1% completed, time steps left  229
  Time to finish   1s,   84.2% completed, time steps left  228
  Time to finish   1s,   84.2% completed, time steps left  227
  Time to finish   1s,   84.3% completed, time steps left  226
  Time to finish   1s,   84.4% completed, time steps left  225
  Time to finish   1s,   84.4% completed, time steps left  224
  Time to finish   1s,   84.5% completed, time steps left  223
  Time to finish   1s,   84.6% completed, time steps left  222
  Time to finish   1s,   84.7% completed, time steps left  221
  Time to finish   1s,   84.7% completed, time steps left  220
  Time to finish   1s,   84.8% completed, time steps left  219
  Time to finish   1s,   84.9% completed, time steps left  218
  Time to finish   1s,   84.9% completed, time steps left  217
  Time to finish   1s,   85.0% completed, time steps left  216
  Time to finish   1s,   85.1% completed, time steps left  215
  Time to finish   1s,   85.1% completed, time steps left  214
  Time to finish   1s,   85.2% completed, time steps left  213
  Time to finish   1s,   85.3% completed, time steps left  212
  Time to finish   1s,   85.3% completed, time steps left  211
  Time to finish   1s,   85.4% completed, time steps left  210
  Time to finish   1s,   85.5% completed, time steps left  209
  Time to finish   1s,   85.6% completed, time steps left  208
  Time to finish   1s,   85.6% completed, time steps left  207
  Time to finish   1s,   85.7% completed, time steps left  206
  Time to finish   1s,   85.8% completed, time steps left  205
  Time to finish   1s,   85.8% completed, time steps left  204
  Time to finish   1s,   85.9% completed, time steps left  203
  Time to finish   1s,   86.0% completed, time steps left  202
  Time to finish   1s,   86.0% completed, time steps left  201
  Time to finish   1s,   86.1% completed, time steps left  200
  Time to finish   1s,   86.2% completed, time steps left  199
  Time to finish   1s,   86.2% completed, time steps left  198
  Time to finish   1s,   86.3% completed, time steps left  197
  Time to finish   1s,   86.4% completed, time steps left  196
  Time to finish   1s,   86.5% completed, time steps left  195
  Time to finish   1s,   86.5% completed, time steps left  194
  Time to finish   1s,   86.6% completed, time steps left  193
  Time to finish   1s,   86.7% completed, time steps left  192
  Time to finish   1s,   86.7% completed, time steps left  191
  Time to finish   1s,   86.8% completed, time steps left  190
  Time to finish   1s,   86.9% completed, time steps left  189
  Time to finish   1s,   86.9% completed, time steps left  188
  Time to finish   1s,   87.0% completed, time steps left  187
  Time to finish   1s,   87.1% completed, time steps left  186
  Time to finish   1s,   87.2% completed, time steps left  185
  Time to finish   1s,   87.2% completed, time steps left  184
  Time to finish   1s,   87.3% completed, time steps left  183
  Time to finish   1s,   87.4% completed, time steps left  182
  Time to finish   1s,   87.4% completed, time steps left  181
  Time to finish   1s,   87.5% completed, time steps left  180
  Time to finish   1s,   87.6% completed, time steps left  179
  Time to finish   1s,   87.6% completed, time steps left  178
  Time to finish   1s,   87.7% completed, time steps left  177
  Time to finish   1s,   87.8% completed, time steps left  176
  Time to finish   1s,   87.8% completed, time steps left  175
  Time to finish   1s,   87.9% completed, time steps left  174
  Time to finish   1s,   88.0% completed, time steps left  173
  Time to finish   1s,   88.1% completed, time steps left  172
  Time to finish   1s,   88.1% completed, time steps left  171
  Time to finish   1s,   88.2% completed, time steps left  170
  Time to finish   1s,   88.3% completed, time steps left  169
  Time to finish   1s,   88.3% completed, time steps left  168
  Time to finish   1s,   88.4% completed, time steps left  167
  Time to finish   1s,   88.5% completed, time steps left  166
  Time to finish   1s,   88.5% completed, time steps left  165
  Time to finish   1s,   88.6% completed, time steps left  164
  Time to finish   1s,   88.7% completed, time steps left  163
  Time to finish   1s,   88.8% completed, time steps left  162
  Time to finish   1s,   88.8% completed, time steps left  161
  Time to finish   1s,   88.9% completed, time steps left  160
  Time to finish   1s,   89.0% completed, time steps left  159
  Time to finish   1s,   89.0% completed, time steps left  158
  Time to finish   1s,   89.1% completed, time steps left  157
  Time to finish   1s,   89.2% completed, time steps left  156
  Time to finish   1s,   89.2% completed, time steps left  155
  Time to finish   1s,   89.3% completed, time steps left  154
  Time to finish   1s,   89.4% completed, time steps left  153
  Time to finish   1s,   89.4% completed, time steps left  152
  Time to finish   1s,   89.5% completed, time steps left  151
  Time to finish   1s,   89.6% completed, time steps left  150
  Time to finish   1s,   89.7% completed, time steps left  149
  Time to finish   1s,   89.7% completed, time steps left  148
  Time to finish   1s,   89.8% completed, time steps left  147
  Time to finish   1s,   89.9% completed, time steps left  146
  Time to finish   1s,   89.9% completed, time steps left  145
  Time to finish   1s,   90.0% completed, time steps left  144
  Time to finish   1s,   90.1% completed, time steps left  143
  Time to finish   1s,   90.1% completed, time steps left  142
  Time to finish   1s,   90.2% completed, time steps left  141
  Time to finish   1s,   90.3% completed, time steps left  140
  Time to finish   1s,   90.3% completed, time steps left  139
  Time to finish   1s,   90.4% completed, time steps left  138
  Time to finish   1s,   90.5% completed, time steps left  137
  Time to finish   1s,   90.6% completed, time steps left  136
  Time to finish   1s,   90.6% completed, time steps left  135
  Time to finish   1s,   90.7% completed, time steps left  134
  Time to finish   1s,   90.8% completed, time steps left  133
  Time to finish   1s,   90.8% completed, time steps left  132
  Time to finish   1s,   90.9% completed, time steps left  131
  Time to finish   1s,   91.0% completed, time steps left  130
  Time to finish   1s,   91.0% completed, time steps left  129
  Time to finish   1s,   91.1% completed, time steps left  128
  Time to finish   1s,   91.2% completed, time steps left  127
  Time to finish   1s,   91.2% completed, time steps left  126
  Time to finish   1s,   91.3% completed, time steps left  125
  Time to finish   1s,   91.4% completed, time steps left  124
  Time to finish   1s,   91.5% completed, time steps left  123
  Time to finish   1s,   91.5% completed, time steps left  122
  Time to finish   1s,   91.6% completed, time steps left  121
  Time to finish   1s,   91.7% completed, time steps left  120
  Time to finish   1s,   91.7% completed, time steps left  119
  Time to finish   1s,   91.8% completed, time steps left  118
  Time to finish   1s,   91.9% completed, time steps left  117
  Time to finish   1s,   91.9% completed, time steps left  116
  Time to finish   1s,   92.0% completed, time steps left  115
  Time to finish   1s,   92.1% completed, time steps left  114
  Time to finish   1s,   92.2% completed, time steps left  113
  Time to finish   0s,   92.2% completed, time steps left  112
  Time to finish   0s,   92.3% completed, time steps left  111
  Time to finish   0s,   92.4% completed, time steps left  110
  Time to finish   0s,   92.4% completed, time steps left  109
  Time to finish   0s,   92.5% completed, time steps left  108
  Time to finish   0s,   92.6% completed, time steps left  107
  Time to finish   0s,   92.6% completed, time steps left  106
  Time to finish   0s,   92.7% completed, time steps left  105
  Time to finish   0s,   92.8% completed, time steps left  104
  Time to finish   0s,   92.8% completed, time steps left  103
  Time to finish   0s,   92.9% completed, time steps left  102
  Time to finish   0s,   93.0% completed, time steps left  101
  Time to finish   0s,   93.1% completed, time steps left  100
  Time to finish   0s,   93.1% completed, time steps left  99
  Time to finish   0s,   93.2% completed, time steps left  98
  Time to finish   0s,   93.3% completed, time steps left  97
  Time to finish   0s,   93.3% completed, time steps left  96
  Time to finish   0s,   93.4% completed, time steps left  95
  Time to finish   0s,   93.5% completed, time steps left  94
  Time to finish   0s,   93.5% completed, time steps left  93
  Time to finish   0s,   93.6% completed, time steps left  92
  Time to finish   0s,   93.7% completed, time steps left  91
  Time to finish   0s,   93.8% completed, time steps left  90
  Time to finish   0s,   93.8% completed, time steps left  89
  Time to finish   0s,   93.9% completed, time steps left  88
  Time to finish   0s,   94.0% completed, time steps left  87
  Time to finish   0s,   94.0% completed, time steps left  86
  Time to finish   0s,   94.1% completed, time steps left  85
  Time to finish   0s,   94.2% completed, time steps left  84
  Time to finish   0s,   94.2% completed, time steps left  83
  Time to finish   0s,   94.3% completed, time steps left  82
  Time to finish   0s,   94.4% completed, time steps left  81
  Time to finish   0s,   94.4% completed, time steps left  80
  Time to finish   0s,   94.5% completed, time steps left  79
  Time to finish   0s,   94.6% completed, time steps left  78
  Time to finish   0s,   94.7% completed, time steps left  77
  Time to finish   0s,   94.7% completed, time steps left  76
  Time to finish   0s,   94.8% completed, time steps left  75
  Time to finish   0s,   94.9% completed, time steps left  74
  Time to finish   0s,   94.9% completed, time steps left  73
  Time to finish   0s,   95.0% completed, time steps left  72
  Time to finish   0s,   95.1% completed, time steps left  71
  Time to finish   0s,   95.1% completed, time steps left  70
  Time to finish   0s,   95.2% completed, time steps left  69
  Time to finish   0s,   95.3% completed, time steps left  68
  Time to finish   0s,   95.3% completed, time steps left  67
  Time to finish   0s,   95.4% completed, time steps left  66
  Time to finish   0s,   95.5% completed, time steps left  65
  Time to finish   0s,   95.6% completed, time steps left  64
  Time to finish   0s,   95.6% completed, time steps left  63
  Time to finish   0s,   95.7% completed, time steps left  62
  Time to finish   0s,   95.8% completed, time steps left  61
  Time to finish   0s,   95.8% completed, time steps left  60
  Time to finish   0s,   95.9% completed, time steps left  59
  Time to finish   0s,   96.0% completed, time steps left  58
  Time to finish   0s,   96.0% completed, time steps left  57
  Time to finish   0s,   96.1% completed, time steps left  56
  Time to finish   0s,   96.2% completed, time steps left  55
  Time to finish   0s,   96.2% completed, time steps left  54
  Time to finish   0s,   96.3% completed, time steps left  53
  Time to finish   0s,   96.4% completed, time steps left  52
  Time to finish   0s,   96.5% completed, time steps left  51
  Time to finish   0s,   96.5% completed, time steps left  50
  Time to finish   0s,   96.6% completed, time steps left  49
  Time to finish   0s,   96.7% completed, time steps left  48
  Time to finish   0s,   96.7% completed, time steps left  47
  Time to finish   0s,   96.8% completed, time steps left  46
  Time to finish   0s,   96.9% completed, time steps left  45
  Time to finish   0s,   96.9% completed, time steps left  44
  Time to finish   0s,   97.0% completed, time steps left  43
  Time to finish   0s,   97.1% completed, time steps left  42
  Time to finish   0s,   97.2% completed, time steps left  41
  Time to finish   0s,   97.2% completed, time steps left  40
  Time to finish   0s,   97.3% completed, time steps left  39
  Time to finish   0s,   97.4% completed, time steps left  38
  Time to finish   0s,   97.4% completed, time steps left  37
  Time to finish   0s,   97.5% completed, time steps left  36
  Time to finish   0s,   97.6% completed, time steps left  35
  Time to finish   0s,   97.6% completed, time steps left  34
  Time to finish   0s,   97.7% completed, time steps left  33
  Time to finish   0s,   97.8% completed, time steps left  32
  Time to finish   0s,   97.8% completed, time steps left  31
  Time to finish   0s,   97.9% completed, time steps left  30
  Time to finish   0s,   98.0% completed, time steps left  29
  Time to finish   0s,   98.1% completed, time steps left  28
  Time to finish   0s,   98.1% completed, time steps left  27
  Time to finish   0s,   98.2% completed, time steps left  26
  Time to finish   0s,   98.3% completed, time steps left  25
  Time to finish   0s,   98.3% completed, time steps left  24
  Time to finish   0s,   98.4% completed, time steps left  23
  Time to finish   0s,   98.5% completed, time steps left  22
  Time to finish   0s,   98.5% completed, time steps left  21
  Time to finish   0s,   98.6% completed, time steps left  20
  Time to finish   0s,   98.7% completed, time steps left  19
  Time to finish   0s,   98.8% completed, time steps left  18
  Time to finish   0s,   98.8% completed, time steps left  17
  Time to finish   0s,   98.9% completed, time steps left  16
  Time to finish   0s,   99.0% completed, time steps left  15
  Time to finish   0s,   99.0% completed, time steps left  14
  Time to finish   0s,   99.1% completed, time steps left  13
  Time to finish   0s,   99.2% completed, time steps left  12
  Time to finish   0s,   99.2% completed, time steps left  11
  Time to finish   0s,   99.3% completed, time steps left  10
  Time to finish   0s,   99.4% completed, time steps left  9
  Time to finish   0s,   99.4% completed, time steps left  8
  Time to finish   0s,   99.5% completed, time steps left  7
  Time to finish   0s,   99.6% completed, time steps left  6
  Time to finish   0s,   99.7% completed, time steps left  5
  Time to finish   0s,   99.7% completed, time steps left  4
  Time to finish   0s,   99.8% completed, time steps left  3
  Time to finish   0s,   99.9% completed, time steps left  2
  Time to finish   0s,   99.9% completed, time steps left  1
 
 
------------------------------------------------------------------------------
  FINISHED    Delft3D-FLOW
              runid      : test1
              date, time : 2017-10-21, 16:39:48
*** WARNING Latitude of your model is 0 degrees, model located at equator
*** WARNING File will not be created - Inconsistent comm. file times
    0 errors and     2 warnings
returning to main program from domain test1
------------------------------------------------------------------------------
