*
* Deltares, Delft3D-RGFGRID Version 4.18.01.18383, Sep  7 2011, 14:23:22
* File creation date: 2017-10-13, 19:17:25
*
Coordinate System = Cartesian
     101       3
 0 0 0
 ETA=    1   0.00000000000000000E+00   1.00000000000000000E+02   2.00000000000000000E+02   3.00000000000000000E+02   4.00000000000000000E+02
             5.00000000000000000E+02   6.00000000000000000E+02   7.00000000000000000E+02   8.00000000000000000E+02   9.00000000000000000E+02
             1.00000000000000000E+03   1.10000000000000000E+03   1.20000000000000000E+03   1.30000000000000000E+03   1.40000000000000000E+03
             1.50000000000000000E+03   1.60000000000000000E+03   1.70000000000000000E+03   1.80000000000000000E+03   1.90000000000000000E+03
             2.00000000000000000E+03   2.10000000000000000E+03   2.20000000000000000E+03   2.30000000000000000E+03   2.40000000000000000E+03
             2.50000000000000000E+03   2.60000000000000000E+03   2.70000000000000000E+03   2.80000000000000000E+03   2.90000000000000000E+03
             3.00000000000000000E+03   3.10000000000000000E+03   3.20000000000000000E+03   3.30000000000000000E+03   3.40000000000000000E+03
             3.50000000000000000E+03   3.60000000000000000E+03   3.70000000000000000E+03   3.80000000000000000E+03   3.90000000000000000E+03
             4.00000000000000000E+03   4.10000000000000000E+03   4.20000000000000000E+03   4.30000000000000000E+03   4.40000000000000000E+03
             4.50000000000000000E+03   4.60000000000000000E+03   4.70000000000000000E+03   4.80000000000000000E+03   4.90000000000000000E+03
             5.00000000000000000E+03   5.10000000000000000E+03   5.20000000000000000E+03   5.30000000000000000E+03   5.40000000000000000E+03
             5.50000000000000000E+03   5.60000000000000000E+03   5.70000000000000000E+03   5.80000000000000000E+03   5.90000000000000000E+03
             6.00000000000000000E+03   6.10000000000000000E+03   6.20000000000000000E+03   6.30000000000000000E+03   6.40000000000000000E+03
             6.50000000000000000E+03   6.60000000000000000E+03   6.70000000000000000E+03   6.80000000000000000E+03   6.90000000000000000E+03
             7.00000000000000000E+03   7.10000000000000000E+03   7.20000000000000000E+03   7.30000000000000000E+03   7.40000000000000000E+03
             7.50000000000000000E+03   7.60000000000000000E+03   7.70000000000000000E+03   7.80000000000000000E+03   7.90000000000000000E+03
             8.00000000000000000E+03   8.10000000000000000E+03   8.20000000000000000E+03   8.30000000000000000E+03   8.40000000000000000E+03
             8.50000000000000000E+03   8.60000000000000000E+03   8.70000000000000000E+03   8.80000000000000000E+03   8.90000000000000000E+03
             9.00000000000000000E+03   9.10000000000000000E+03   9.20000000000000000E+03   9.30000000000000000E+03   9.40000000000000000E+03
             9.50000000000000000E+03   9.60000000000000000E+03   9.70000000000000000E+03   9.80000000000000000E+03   9.90000000000000000E+03
             1.00000000000000000E+04
 ETA=    2   0.00000000000000000E+00   1.00000000000000000E+02   2.00000000000000000E+02   3.00000000000000000E+02   4.00000000000000000E+02
             5.00000000000000000E+02   6.00000000000000000E+02   7.00000000000000000E+02   8.00000000000000000E+02   9.00000000000000000E+02
             1.00000000000000000E+03   1.10000000000000000E+03   1.20000000000000000E+03   1.30000000000000000E+03   1.40000000000000000E+03
             1.50000000000000000E+03   1.60000000000000000E+03   1.70000000000000000E+03   1.80000000000000000E+03   1.90000000000000000E+03
             2.00000000000000000E+03   2.10000000000000000E+03   2.20000000000000000E+03   2.30000000000000000E+03   2.40000000000000000E+03
             2.50000000000000000E+03   2.60000000000000000E+03   2.70000000000000000E+03   2.80000000000000000E+03   2.90000000000000000E+03
             3.00000000000000000E+03   3.10000000000000000E+03   3.20000000000000000E+03   3.30000000000000000E+03   3.40000000000000000E+03
             3.50000000000000000E+03   3.60000000000000000E+03   3.70000000000000000E+03   3.80000000000000000E+03   3.90000000000000000E+03
             4.00000000000000000E+03   4.10000000000000000E+03   4.20000000000000000E+03   4.30000000000000000E+03   4.40000000000000000E+03
             4.50000000000000000E+03   4.60000000000000000E+03   4.70000000000000000E+03   4.80000000000000000E+03   4.90000000000000000E+03
             5.00000000000000000E+03   5.10000000000000000E+03   5.20000000000000000E+03   5.30000000000000000E+03   5.40000000000000000E+03
             5.50000000000000000E+03   5.60000000000000000E+03   5.70000000000000000E+03   5.80000000000000000E+03   5.90000000000000000E+03
             6.00000000000000000E+03   6.10000000000000000E+03   6.20000000000000000E+03   6.30000000000000000E+03   6.40000000000000000E+03
             6.50000000000000000E+03   6.60000000000000000E+03   6.70000000000000000E+03   6.80000000000000000E+03   6.90000000000000000E+03
             7.00000000000000000E+03   7.10000000000000000E+03   7.20000000000000000E+03   7.30000000000000000E+03   7.40000000000000000E+03
             7.50000000000000000E+03   7.60000000000000000E+03   7.70000000000000000E+03   7.80000000000000000E+03   7.90000000000000000E+03
             8.00000000000000000E+03   8.10000000000000000E+03   8.20000000000000000E+03   8.30000000000000000E+03   8.40000000000000000E+03
             8.50000000000000000E+03   8.60000000000000000E+03   8.70000000000000000E+03   8.80000000000000000E+03   8.90000000000000000E+03
             9.00000000000000000E+03   9.10000000000000000E+03   9.20000000000000000E+03   9.30000000000000000E+03   9.40000000000000000E+03
             9.50000000000000000E+03   9.60000000000000000E+03   9.70000000000000000E+03   9.80000000000000000E+03   9.90000000000000000E+03
             1.00000000000000000E+04
 ETA=    3   0.00000000000000000E+00   1.00000000000000000E+02   2.00000000000000000E+02   3.00000000000000000E+02   4.00000000000000000E+02
             5.00000000000000000E+02   6.00000000000000000E+02   7.00000000000000000E+02   8.00000000000000000E+02   9.00000000000000000E+02
             1.00000000000000000E+03   1.10000000000000000E+03   1.20000000000000000E+03   1.30000000000000000E+03   1.40000000000000000E+03
             1.50000000000000000E+03   1.60000000000000000E+03   1.70000000000000000E+03   1.80000000000000000E+03   1.90000000000000000E+03
             2.00000000000000000E+03   2.10000000000000000E+03   2.20000000000000000E+03   2.30000000000000000E+03   2.40000000000000000E+03
             2.50000000000000000E+03   2.60000000000000000E+03   2.70000000000000000E+03   2.80000000000000000E+03   2.90000000000000000E+03
             3.00000000000000000E+03   3.10000000000000000E+03   3.20000000000000000E+03   3.30000000000000000E+03   3.40000000000000000E+03
             3.50000000000000000E+03   3.60000000000000000E+03   3.70000000000000000E+03   3.80000000000000000E+03   3.90000000000000000E+03
             4.00000000000000000E+03   4.10000000000000000E+03   4.20000000000000000E+03   4.30000000000000000E+03   4.40000000000000000E+03
             4.50000000000000000E+03   4.60000000000000000E+03   4.70000000000000000E+03   4.80000000000000000E+03   4.90000000000000000E+03
             5.00000000000000000E+03   5.10000000000000000E+03   5.20000000000000000E+03   5.30000000000000000E+03   5.40000000000000000E+03
             5.50000000000000000E+03   5.60000000000000000E+03   5.70000000000000000E+03   5.80000000000000000E+03   5.90000000000000000E+03
             6.00000000000000000E+03   6.10000000000000000E+03   6.20000000000000000E+03   6.30000000000000000E+03   6.40000000000000000E+03
             6.50000000000000000E+03   6.60000000000000000E+03   6.70000000000000000E+03   6.80000000000000000E+03   6.90000000000000000E+03
             7.00000000000000000E+03   7.10000000000000000E+03   7.20000000000000000E+03   7.30000000000000000E+03   7.40000000000000000E+03
             7.50000000000000000E+03   7.60000000000000000E+03   7.70000000000000000E+03   7.80000000000000000E+03   7.90000000000000000E+03
             8.00000000000000000E+03   8.10000000000000000E+03   8.20000000000000000E+03   8.30000000000000000E+03   8.40000000000000000E+03
             8.50000000000000000E+03   8.60000000000000000E+03   8.70000000000000000E+03   8.80000000000000000E+03   8.90000000000000000E+03
             9.00000000000000000E+03   9.10000000000000000E+03   9.20000000000000000E+03   9.30000000000000000E+03   9.40000000000000000E+03
             9.50000000000000000E+03   9.60000000000000000E+03   9.70000000000000000E+03   9.80000000000000000E+03   9.90000000000000000E+03
             1.00000000000000000E+04
 ETA=    1   1.00000000000000000E+02   1.00000000000000000E+02   1.00000000000000000E+02   1.00000000000000000E+02   1.00000000000000000E+02
             1.00000000000000000E+02   1.00000000000000000E+02   1.00000000000000000E+02   1.00000000000000000E+02   1.00000000000000000E+02
             1.00000000000000000E+02   1.00000000000000000E+02   1.00000000000000000E+02   1.00000000000000000E+02   1.00000000000000000E+02
             1.00000000000000000E+02   1.00000000000000000E+02   1.00000000000000000E+02   1.00000000000000000E+02   1.00000000000000000E+02
             1.00000000000000000E+02   1.00000000000000000E+02   1.00000000000000000E+02   1.00000000000000000E+02   1.00000000000000000E+02
             1.00000000000000000E+02   1.00000000000000000E+02   1.00000000000000000E+02   1.00000000000000000E+02   1.00000000000000000E+02
             1.00000000000000000E+02   1.00000000000000000E+02   1.00000000000000000E+02   1.00000000000000000E+02   1.00000000000000000E+02
             1.00000000000000000E+02   1.00000000000000000E+02   1.00000000000000000E+02   1.00000000000000000E+02   1.00000000000000000E+02
             1.00000000000000000E+02   1.00000000000000000E+02   1.00000000000000000E+02   1.00000000000000000E+02   1.00000000000000000E+02
             1.00000000000000000E+02   1.00000000000000000E+02   1.00000000000000000E+02   1.00000000000000000E+02   1.00000000000000000E+02
             1.00000000000000000E+02   1.00000000000000000E+02   1.00000000000000000E+02   1.00000000000000000E+02   1.00000000000000000E+02
             1.00000000000000000E+02   1.00000000000000000E+02   1.00000000000000000E+02   1.00000000000000000E+02   1.00000000000000000E+02
             1.00000000000000000E+02   1.00000000000000000E+02   1.00000000000000000E+02   1.00000000000000000E+02   1.00000000000000000E+02
             1.00000000000000000E+02   1.00000000000000000E+02   1.00000000000000000E+02   1.00000000000000000E+02   1.00000000000000000E+02
             1.00000000000000000E+02   1.00000000000000000E+02   1.00000000000000000E+02   1.00000000000000000E+02   1.00000000000000000E+02
             1.00000000000000000E+02   1.00000000000000000E+02   1.00000000000000000E+02   1.00000000000000000E+02   1.00000000000000000E+02
             1.00000000000000000E+02   1.00000000000000000E+02   1.00000000000000000E+02   1.00000000000000000E+02   1.00000000000000000E+02
             1.00000000000000000E+02   1.00000000000000000E+02   1.00000000000000000E+02   1.00000000000000000E+02   1.00000000000000000E+02
             1.00000000000000000E+02   1.00000000000000000E+02   1.00000000000000000E+02   1.00000000000000000E+02   1.00000000000000000E+02
             1.00000000000000000E+02   1.00000000000000000E+02   1.00000000000000000E+02   1.00000000000000000E+02   1.00000000000000000E+02
             1.00000000000000000E+02
 ETA=    2   1.10000000000000000E+03   1.10000000000000000E+03   1.10000000000000000E+03   1.10000000000000000E+03   1.10000000000000000E+03
             1.10000000000000000E+03   1.10000000000000000E+03   1.10000000000000000E+03   1.10000000000000000E+03   1.10000000000000000E+03
             1.10000000000000000E+03   1.10000000000000000E+03   1.10000000000000000E+03   1.10000000000000000E+03   1.10000000000000000E+03
             1.10000000000000000E+03   1.10000000000000000E+03   1.10000000000000000E+03   1.10000000000000000E+03   1.10000000000000000E+03
             1.10000000000000000E+03   1.10000000000000000E+03   1.10000000000000000E+03   1.10000000000000000E+03   1.10000000000000000E+03
             1.10000000000000000E+03   1.10000000000000000E+03   1.10000000000000000E+03   1.10000000000000000E+03   1.10000000000000000E+03
             1.10000000000000000E+03   1.10000000000000000E+03   1.10000000000000000E+03   1.10000000000000000E+03   1.10000000000000000E+03
             1.10000000000000000E+03   1.10000000000000000E+03   1.10000000000000000E+03   1.10000000000000000E+03   1.10000000000000000E+03
             1.10000000000000000E+03   1.10000000000000000E+03   1.10000000000000000E+03   1.10000000000000000E+03   1.10000000000000000E+03
             1.10000000000000000E+03   1.10000000000000000E+03   1.10000000000000000E+03   1.10000000000000000E+03   1.10000000000000000E+03
             1.10000000000000000E+03   1.10000000000000000E+03   1.10000000000000000E+03   1.10000000000000000E+03   1.10000000000000000E+03
             1.10000000000000000E+03   1.10000000000000000E+03   1.10000000000000000E+03   1.10000000000000000E+03   1.10000000000000000E+03
             1.10000000000000000E+03   1.10000000000000000E+03   1.10000000000000000E+03   1.10000000000000000E+03   1.10000000000000000E+03
             1.10000000000000000E+03   1.10000000000000000E+03   1.10000000000000000E+03   1.10000000000000000E+03   1.10000000000000000E+03
             1.10000000000000000E+03   1.10000000000000000E+03   1.10000000000000000E+03   1.10000000000000000E+03   1.10000000000000000E+03
             1.10000000000000000E+03   1.10000000000000000E+03   1.10000000000000000E+03   1.10000000000000000E+03   1.10000000000000000E+03
             1.10000000000000000E+03   1.10000000000000000E+03   1.10000000000000000E+03   1.10000000000000000E+03   1.10000000000000000E+03
             1.10000000000000000E+03   1.10000000000000000E+03   1.10000000000000000E+03   1.10000000000000000E+03   1.10000000000000000E+03
             1.10000000000000000E+03   1.10000000000000000E+03   1.10000000000000000E+03   1.10000000000000000E+03   1.10000000000000000E+03
             1.10000000000000000E+03   1.10000000000000000E+03   1.10000000000000000E+03   1.10000000000000000E+03   1.10000000000000000E+03
             1.10000000000000000E+03
 ETA=    3   2.10000000000000000E+03   2.10000000000000000E+03   2.10000000000000000E+03   2.10000000000000000E+03   2.10000000000000000E+03
             2.10000000000000000E+03   2.10000000000000000E+03   2.10000000000000000E+03   2.10000000000000000E+03   2.10000000000000000E+03
             2.10000000000000000E+03   2.10000000000000000E+03   2.10000000000000000E+03   2.10000000000000000E+03   2.10000000000000000E+03
             2.10000000000000000E+03   2.10000000000000000E+03   2.10000000000000000E+03   2.10000000000000000E+03   2.10000000000000000E+03
             2.10000000000000000E+03   2.10000000000000000E+03   2.10000000000000000E+03   2.10000000000000000E+03   2.10000000000000000E+03
             2.10000000000000000E+03   2.10000000000000000E+03   2.10000000000000000E+03   2.10000000000000000E+03   2.10000000000000000E+03
             2.10000000000000000E+03   2.10000000000000000E+03   2.10000000000000000E+03   2.10000000000000000E+03   2.10000000000000000E+03
             2.10000000000000000E+03   2.10000000000000000E+03   2.10000000000000000E+03   2.10000000000000000E+03   2.10000000000000000E+03
             2.10000000000000000E+03   2.10000000000000000E+03   2.10000000000000000E+03   2.10000000000000000E+03   2.10000000000000000E+03
             2.10000000000000000E+03   2.10000000000000000E+03   2.10000000000000000E+03   2.10000000000000000E+03   2.10000000000000000E+03
             2.10000000000000000E+03   2.10000000000000000E+03   2.10000000000000000E+03   2.10000000000000000E+03   2.10000000000000000E+03
             2.10000000000000000E+03   2.10000000000000000E+03   2.10000000000000000E+03   2.10000000000000000E+03   2.10000000000000000E+03
             2.10000000000000000E+03   2.10000000000000000E+03   2.10000000000000000E+03   2.10000000000000000E+03   2.10000000000000000E+03
             2.10000000000000000E+03   2.10000000000000000E+03   2.10000000000000000E+03   2.10000000000000000E+03   2.10000000000000000E+03
             2.10000000000000000E+03   2.10000000000000000E+03   2.10000000000000000E+03   2.10000000000000000E+03   2.10000000000000000E+03
             2.10000000000000000E+03   2.10000000000000000E+03   2.10000000000000000E+03   2.10000000000000000E+03   2.10000000000000000E+03
             2.10000000000000000E+03   2.10000000000000000E+03   2.10000000000000000E+03   2.10000000000000000E+03   2.10000000000000000E+03
             2.10000000000000000E+03   2.10000000000000000E+03   2.10000000000000000E+03   2.10000000000000000E+03   2.10000000000000000E+03
             2.10000000000000000E+03   2.10000000000000000E+03   2.10000000000000000E+03   2.10000000000000000E+03   2.10000000000000000E+03
             2.10000000000000000E+03   2.10000000000000000E+03   2.10000000000000000E+03   2.10000000000000000E+03   2.10000000000000000E+03
             2.10000000000000000E+03
