Ident  = #Delft3D-FLOW  .03.02 3.42.00.17790#
Commnt =                  
Runtxt = #Assignment1#
         #First question#
         #100*2#
Filcco = #test1.grd#
Anglat =  0.0000000e+000
Grdang =  0.0000000e+000
Filgrd = #test1.enc#
MNKmax = 102 4 1
Thick  =  1.0000000e+002
Commnt =                  
Depuni =  1.0000000e+001
Commnt =                  
Commnt =                 no. dry points: 0
Commnt =                 no. thin dams: 0
Commnt =                  
Itdate = #2017-01-01#
Tunit  = #M#
Tstart =  3.9312000e+005
Tstop  =  4.0032000e+005
Dt     = 5
Tzone  = 8
Commnt =                  
Sub1   = #    #
Sub2   = #   #
Commnt =                  
Wnsvwp = #N#
Wndint = #Y#
Commnt =                  
Zeta0  =  0.0000000e+000
Commnt =                  
Commnt =                 no. open boundaries: 1
Filbnd = #test1.bnd#
FilbcH = #test1_harmonic.bch#
Commnt =                  
Ag     =  9.8100000e+000
Rhow   =  1.0200000e+003
Tempw  =  1.5000000e+001
Salw   =  3.1000000e+001
Wstres =  6.3000000e-004  0.0000000e+000  7.2300000e-003  1.0000000e+002  7.2300000e-003  1.0000000e+002
Rhoa   =  1.0000000e+000
Betac  =  5.0000000e-001
Equili = #N#
Ktemp  = 0
Fclou  =  0.0000000e+000
Sarea  =  0.0000000e+000
Temint = #Y#
Commnt =                  
Roumet = #C#
Ccofu  =  5.0000000e+000
Ccofv  =  5.0000000e+000
Xlo    =  0.0000000e+000
Vicouv =  1.0000000e+000
Dicouv =  1.0000000e+001
Htur2d = #N#
Irov   = 0
Commnt =                  
Iter   =      2
Dryflp = #YES#
Dpsopt = #MAX#
Dpuopt = #MEAN#
Dryflc =  1.0000000e-001
Dco    = -9.9900000e+002
Tlfsmo =  6.0000000e+001
ThetQH =  0.0000000e+000
Forfuv = #Y#
Forfww = #N#
Sigcor = #N#
Trasol = #Cyclic-method#
Momsol = #Cyclic#
Commnt =                  
Commnt =                 no. discharges: 0
Commnt =                 no. observation points: 5
Filsta = #test1.obs#
Commnt =                 no. drogues: 0
Commnt =                  
Commnt =                  
Commnt =                 no. cross sections: 0
Commnt =                  
SMhydr = #YYYYY#     
SMderv = #YYYYYY#    
SMproc = #YYYYYYYYYY#
PMhydr = #YYYYYY#    
PMderv = #YYY#       
PMproc = #YYYYYYYYYY#
SHhydr = #YYYY#      
SHderv = #YYYYY#     
SHproc = #YYYYYYYYYY#
SHflux = #YYYY#      
PHhydr = #YYYYYY#    
PHderv = #YYY#       
PHproc = #YYYYYYYYYY#
PHflux = #YYYY#      
Online = #N#
Flmap  =  3.9312000e+005 60  4.0032000e+005
Flhis  =  3.9312000e+005 10  4.0032000e+005
Flpp   =  4.1040000e+005 0  4.1040000e+005
Flrst  = 1440
Commnt =                  
Commnt =                  
