
********************************************************************************
***
*** Deltares, Delft3D-FLOW Version 4.00.04.757, Aug 23 2011, 18:06:51
***
***           runid     : test1
***           date,time : 2017-10-21, 16:43:17
***
********************************************************************************

*** MESSAGE No Fmtbnd record found in MDF-file, item will be skipped 
*** MESSAGE No Fmtsta record found in MDF-file, item will be skipped 
*** MESSAGE Executable for 32-bits platform. 
*** MESSAGE Double precision computation using reals of kind    8 
*** Start of User Defined Model description 
 -
 -  Assignment1                   
 -  First question                
 -  100*2                         
 -
*** End   of User Defined Model description 

*** MESSAGE No Fmtcco record found in MDF-file, item will be skipped 
*** MESSAGE No Fmtgrd record found in MDF-file, item will be skipped 
*** MESSAGE No Fmtbnd record found in MDF-file, item will be skipped 
*** MESSAGE Local time zone is UTC +  8.0 hours
*** MESSAGE Using UNESCO density formulation by default 
*** MESSAGE Momentum solver cyclic method is specified 
*** MESSAGE DRYFLP and DPSOPT both specified in MD-file. Using DPSOPT: MAX 
*** WARNING Latitude of your model is 0 degrees, model located at equator
*** WARNING File will not be created - Inconsistent comm. file times 
*** Restart file written at     394560.0000 minutes after ITDATE
*** Restart file written at     396000.0000 minutes after ITDATE
*** Restart file written at     397440.0000 minutes after ITDATE
*** Restart file written at     398880.0000 minutes after ITDATE
*** Restart file written at     400320.0000 minutes after ITDATE
 
*** Simulation finished *******************************************************
 
Performance timers:
|---------------------------------------------------------------------|
|Timer name           |       wall clock      |       CPU time        |
|                     |-----------------------|-----------------------|
|                     |       sec     |  %    |       sec     |  %    |
|---------------------------------------------------------------------|
|Initialization       |         0.22  |  3.4  |         0.12  |  4.2  | 
|Simulation           |         6.37  | 96.4  |         2.81  | 95.2  | 
|Close and stop       |         0.02  |  0.2  |         0.02  |  0.5  | 
|                     |------------- +|----- +|------------- +|----- +|
|Total                |         6.61  |100.0  |         2.95  |100.0  | 
|---------------------------------------------|-----------------------|
|Momentum eq.         |         0.20  |  3.0  |         0.19  |  6.3  | 
|Continuity eq.       |         0.23  |  3.5  |         0.11  |  3.7  | 
|Transport eq.        |         0.00  |  0.0  |         0.00  |  0.0  | 
|Turbulence           |         0.01  |  0.2  |         0.02  |  0.5  | 
|3D Morphology        |         0.00  |  0.0  |         0.00  |  0.0  | 
|Wait (dd   module)   |         0.00  |  0.0  |         0.00  |  0.0  | 
|Wait (ext. modules)  |         0.00  |  0.0  |         0.00  |  0.0  | 
|---------------------------------------------------------------------|
| Performance = CPU time / (TimeSteps*MMAX*NMAX*KMAX)                 |
|   TimeSteps   :        1440                                         |
|   MMAX        :         102                                         |
|   NMAX        :           4                                         |
|   KMAX        :           1                                         |
|   Performance : 0.50184E-05 [sec]                                   |
|---------------------------------------------------------------------|
|Explanation:                                                         |
|                                                                     |
|Initialization : Everything up to the first time step                |
|Simulation     : All time steps                                      |
|Close and stop : Everything after the last time step                 |
|Total          : FLOW for this subdomain,                            |
|                 excluding allocation/deallocation of global data    |
|                                                                     |
|Momentum eq.   : Part of Simulation ("UZD")                          |
|Continuity eq. : Part of Simulation ("SUD")                          |
|Transport eq.  : Part of Simulation ("DIFU")                         |
|                 Only relevant when constituents are modelled.       |
|Turbulence     : Part of Simulation ("TURCLO, TRATUR, TUR2D")        |
|3D Morphology  : Part of Simulation ("EROSED, BOTT3D")               |
|                 Only relevant when sediments are modelled.          |
|Wait (dd)      : Part of Initialization, Simulation and Closing.     |
|                 ("NXTSTP, NXTDRY")                                  |
|                 Only relevant when DomainDecomposition is used.     |
|                 Communication with and execution of the "mappers".  |
|                 Mappers are separate threads, possibly in another   |
|                 executable, possibly on another node. They copy     |
|                 data from one subdomain to another.                 |
|                 FLOWs must wait while the mappers are executing,    |
|                 mappers must wait while the FLOWs are executing.    |
|Wait (ext)     : Part of Initialization, Simulation and Closing.     |
|                 ("SYNC, _TO_, _FROM_")                              |
|                 Communication with and execution of all "external"  |
|                 modules:                                            |
|                 Online WAVES, Online WAQ, Online RTC, Fluid Mud.    |
|                                                                     |
|---------------------------------------------------------------------|
 

********************************************************************************
***
*** FINISHED    Delft3D-FLOW
***             runid      : test1
***             date, time : 2017-10-21, 16:43:24
***
********************************************************************************

